*HEADING
FEA1B_M3R_INTERFACE  case=CAPTURE_22KG_QS  mesh=L3_MM_FINE  eltype=C3D8I  material=AL6061_T6_CAND
M7 WP7 FEA_OPERATIONAL element-formulation closure (ODR-11/ODR-12).
Units: N, mm, MPa, tonne. Linear static. DESIGN_INDICATIVE results only.
** ELEMENT_FORMULATION: C3D8I -- incompatible-mode 8-node hex, 2x2x2 full integration, no hourglass modes, incompatible modes relieve shear locking in bending-dominated thin features (PRIMARY choice)
** MESH_SERIES: MESH_MATCHED  n_xy=20 (pitch 8 mm)  kz=1
** ASSUMPTION: LINEAR_STATIC_SMALL_DISPLACEMENT (NLGEOM off; loads are milli-g level)
** ASSUMPTION: BUS_SIDE_ENCASTRE_ASSUMPTION: BC-BUS-001 bus stiffness authority is HOLD; z=0 face fully clamped = stiff-boundary design bound
** ASSUMPTION: BOLT_DISK_KINEMATIC_COUPLING_ASSUMPTION: M6/M5/M4 joints modelled as rigid coupling disks (r_b=12/10/10 mm, auto-grow to >=1 node/face, recorded); no preload, no friction, no slip
** ASSUMPTION: ARM_BASE_RIGID_SPIDER_ASSUMPTION: B601 base flange stiffness >> 8 mm ring; single RP spider onto 4 as-built M4 disks; sensitivity covered by the 3-level mesh convergence series (CDR rigid_spider rule)
** ASSUMPTION: NO_CONTACT_NO_PRELOAD_NO_FRICTION: CDR joint mechanics HOLD; faces outside bolt disks untied (separation/interpenetration possible; Level-1 bound)
** ASSUMPTION: STAGE_B_IDEALIZED_ANNULAR_PLATE: pocket/recess not resolved; bore dia100 through bottom 2 layers; centre web r<50 modelled 4.0 mm (real 5.595)
** ASSUMPTION: STAGE_A_IDEALIZED_UNIFORM_RING: OD150/ID40 x 8.0 uniform; spigot, recess, counterbores not resolved
** ASSUMPTION: BRIDGE_CORNER_RADIUS_OMITTED: R4 corners modelled square; all boundaries stepped at element corners
** ASSUMPTION: SMALL_HOLES_NOT_CUT: dia6.6/5.5/4.6 holes represented by coupling disks, not voids (locally stiffer); hole-edge peak stress NOT qualified here
** ASSUMPTION: POISSON_ASSUMPTION: nu=0.33 for both Al candidates (not in M6 library)
** ASSUMPTION: MATERIALS_CANDIDATE: 6061-T6 / 7075-T651 elastic constants from M6 WP4 library, classification PROTOTYPE_CANDIDATE; margins DESIGN_INDICATIVE only
** ASSUMPTION: DYNAMIC_FACTOR_ASSUMPTION: quasi-static equivalence F_eq=DAF*J/dt, DAF=2.0, dt=0.1 s; both declared assumptions, research-bound
** ASSUMPTION: LOAD_DIRECTION_ASSUMPTION: transverse +y force plus bending moment about +z; worst-axis alignment declared (near-axisymmetric stack)
** ASSUMPTION: MEMORY_GATE_MESH_ADAPTATION: seeds 16/10/8 mm replace draft 4/2/1 mm; <=4000 C3D8R; 6.7 mm ligament NOT resolved with 3 elements; convergence assessed on global maxima trend only
** ASSUMPTION: ARM_LOADS_BOUNDED_BY_ASSUMPTION: quintic peak accel from LC-010 trajectory x r_eff=0.7 m; e-stop = 2x maneuver; arm inertia tensor not reduced (arm cases shown to be non-governing)
** ASSUMPTION: ELEMENT_FORMULATION_CHANGE: C3D8R (1 IP + hourglass control) replaced by C3D8I (2x2x2 full integration + incompatible modes). No hourglass modes exist in C3D8I, so ALLAE must collapse to ~0; this is the acceptance test
** ASSUMPTION: IP_COUNT_COMPARABILITY: C3D8R reports 1 centroidal integration point, so its 'peak von Mises' is already an element-average; C3D8I reports 8 Gauss points, whose peak is systematically above the element average in a bending field. C3D8R peak must therefore be compared against the C3D8I ELEMENT-AVERAGED value, not against the C3D8I peak IP value
** ASSUMPTION: THROUGH_THICKNESS_REFINEMENT: kz multiplies the layer count of every z segment (bridge 2kz, stage B annulus 2kz, stage B web 1kz, stage A 2kz); kz=1 reproduces the FEA-1 plane list node-for-node
** ASSUMPTION: STAIRCASE_BOUNDARY_SINGULARITY: the dia-40 / dia-100 / OD-150 circular boundaries are stepped at element corners, so each in-plane refinement level presents a DIFFERENT discrete re-entrant-corner set. Peak stress at those steps cannot converge by construction and is excluded from the region-stress convergence metric (fixed 10 mm geometric band)
** ASSUMPTION: POINT_COUPLING_SINGULARITY: the arm-base RP kinematic coupling and the per-bolt kinematic couplings are point/patch constraints; peak stress in their immediate neighbourhood rises monotonically with refinement as a constraint singularity and is reported separately (ODR-11 singularity rule), with a fixed 15 mm exclusion radius for the far-field metric
** Case load: F_y=7.21244 N, M_z=1846.1363212000001 N*mm (F=DAF*J/dt; M=F*L_grasp+DAF*C/dt (envelope row CAP22_030))
**
*NODE
1000001,-80.000000,-80.000000,0.000000
1000002,-72.000000,-80.000000,0.000000
1000003,-64.000000,-80.000000,0.000000
1000004,-56.000000,-80.000000,0.000000
1000005,-48.000000,-80.000000,0.000000
1000006,-40.000000,-80.000000,0.000000
1000007,-32.000000,-80.000000,0.000000
1000008,-24.000000,-80.000000,0.000000
1000009,-16.000000,-80.000000,0.000000
1000010,-8.000000,-80.000000,0.000000
1000011,0.000000,-80.000000,0.000000
1000012,8.000000,-80.000000,0.000000
1000013,16.000000,-80.000000,0.000000
1000014,24.000000,-80.000000,0.000000
1000015,32.000000,-80.000000,0.000000
1000016,40.000000,-80.000000,0.000000
1000017,48.000000,-80.000000,0.000000
1000018,56.000000,-80.000000,0.000000
1000019,64.000000,-80.000000,0.000000
1000020,72.000000,-80.000000,0.000000
** ... 3543 like lines cut
*ELEMENT,TYPE=C3D8I,ELSET=EALL
1,1000001,1000002,1001002,1001001,2000001,2000002,2001002,2001001
2,1000002,1000003,1001003,1001002,2000002,2000003,2001003,2001002
3,1000003,1000004,1001004,1001003,2000003,2000004,2001004,2001003
4,1000004,1000005,1001005,1001004,2000004,2000005,2001005,2001004
5,1000005,1000006,1001006,1001005,2000005,2000006,2001006,2001005
6,1000006,1000007,1001007,1001006,2000006,2000007,2001007,2001006
7,1000007,1000008,1001008,1001007,2000007,2000008,2001008,2001007
8,1000008,1000009,1001009,1001008,2000008,2000009,2001009,2001008
9,1000009,1000010,1001010,1001009,2000009,2000010,2001010,2001009
10,1000010,1000011,1001011,1001010,2000010,2000011,2001011,2001010
11,1000011,1000012,1001012,1001011,2000011,2000012,2001012,2001011
12,1000012,1000013,1001013,1001012,2000012,2000013,2001013,2001012
13,1000013,1000014,1001014,1001013,2000013,2000014,2001014,2001013
14,1000014,1000015,1001015,1001014,2000014,2000015,2001015,2001014
15,1000015,1000016,1001016,1001015,2000015,2000016,2001016,2001015
16,1000016,1000017,1001017,1001016,2000016,2000017,2001017,2001016
17,1000017,1000018,1001018,1001017,2000017,2000018,2001018,2001017
18,1000018,1000019,1001019,1001018,2000018,2000019,2001019,2001018
19,1000019,1000020,1001020,1001019,2000019,2000020,2001020,2001019
20,1000020,1000021,1001021,1001020,2000020,2000021,2001021,2001020
** ... 2036 like lines cut
*ELSET,ELSET=EBRIDGE
1,2,3,4,5,6,7,8,9,10,11,12,13,14,15,16
17,18,19,20,21,22,23,24,25,26,27,28,29,30,31,32
33,34,35,36,37,38,39,40,41,42,43,44,45,46,47,48
49,50,51,52,53,54,55,56,57,58,59,60,61,62,63,64
65,66,67,68,69,70,71,72,73,74,75,76,77,78,79,80
81,82,83,84,85,86,87,88,89,90,91,92,93,94,95,96
97,98,99,100,101,102,103,104,105,106,107,108,109,110,111,112
113,114,115,116,117,118,119,120,121,122,123,124,125,126,127,128
129,130,131,132,133,134,135,136,137,138,139,140,141,142,143,144
145,146,147,148,149,150,151,152,153,154,155,156,157,158,159,160
161,162,163,164,165,166,167,168,169,170,171,172,173,174,175,176
177,178,179,180,181,182,183,184,185,186,187,188,189,190,191,192
193,194,195,196,197,198,199,200,201,202,203,204,205,206,207,208
209,210,211,212,213,214,215,216,217,218,219,220,221,222,223,224
225,226,227,228,229,230,231,232,233,234,235,236,237,238,239,240
241,242,243,244,245,246,247,248,249,250,251,252,253,254,255,256
257,258,259,260,261,262,263,264,265,266,267,268,269,270,271,272
273,274,275,276,277,278,279,280,281,282,283,284,285,286,287,288
289,290,291,292,293,294,295,296,297,298,299,300,301,302,303,304
305,306,307,308,309,310,311,312,313,314,315,316,317,318,319,320
** ... 26 like lines cut
*ELSET,ELSET=ESTAGEB
737,738,739,740,741,742,743,744,745,746,747,748,749,750,751,752
753,754,755,756,757,758,759,760,761,762,763,764,765,766,767,768
769,770,771,772,773,774,775,776,777,778,779,780,781,782,783,784
785,786,787,788,789,790,791,792,793,794,795,796,797,798,799,800
801,802,803,804,805,806,807,808,809,810,811,812,813,814,815,816
817,818,819,820,821,822,823,824,825,826,827,828,829,830,831,832
833,834,835,836,837,838,839,840,841,842,843,844,845,846,847,848
849,850,851,852,853,854,855,856,857,858,859,860,861,862,863,864
865,866,867,868,869,870,871,872,873,874,875,876,877,878,879,880
881,882,883,884,885,886,887,888,889,890,891,892,893,894,895,896
897,898,899,900,901,902,903,904,905,906,907,908,909,910,911,912
913,914,915,916,917,918,919,920,921,922,923,924,925,926,927,928
929,930,931,932,933,934,935,936,937,938,939,940,941,942,943,944
945,946,947,948,949,950,951,952,953,954,955,956,957,958,959,960
961,962,963,964,965,966,967,968,969,970,971,972,973,974,975,976
977,978,979,980,981,982,983,984,985,986,987,988,989,990,991,992
993,994,995,996,997,998,999,1000,1001,1002,1003,1004,1005,1006,1007,1008
1009,1010,1011,1012,1013,1014,1015,1016,1017,1018,1019,1020,1021,1022,1023,1024
1025,1026,1027,1028,1029,1030,1031,1032,1033,1034,1035,1036,1037,1038,1039,1040
1041,1042,1043,1044,1045,1046,1047,1048,1049,1050,1051,1052,1053,1054,1055,1056
** ... 37 like lines cut
*ELSET,ELSET=ESTAGEA
1641,1642,1643,1644,1645,1646,1647,1648,1649,1650,1651,1652,1653,1654,1655,1656
1657,1658,1659,1660,1661,1662,1663,1664,1665,1666,1667,1668,1669,1670,1671,1672
1673,1674,1675,1676,1677,1678,1679,1680,1681,1682,1683,1684,1685,1686,1687,1688
1689,1690,1691,1692,1693,1694,1695,1696,1697,1698,1699,1700,1701,1702,1703,1704
1705,1706,1707,1708,1709,1710,1711,1712,1713,1714,1715,1716,1717,1718,1719,1720
1721,1722,1723,1724,1725,1726,1727,1728,1729,1730,1731,1732,1733,1734,1735,1736
1737,1738,1739,1740,1741,1742,1743,1744,1745,1746,1747,1748,1749,1750,1751,1752
1753,1754,1755,1756,1757,1758,1759,1760,1761,1762,1763,1764,1765,1766,1767,1768
1769,1770,1771,1772,1773,1774,1775,1776,1777,1778,1779,1780,1781,1782,1783,1784
1785,1786,1787,1788,1789,1790,1791,1792,1793,1794,1795,1796,1797,1798,1799,1800
1801,1802,1803,1804,1805,1806,1807,1808,1809,1810,1811,1812,1813,1814,1815,1816
1817,1818,1819,1820,1821,1822,1823,1824,1825,1826,1827,1828,1829,1830,1831,1832
1833,1834,1835,1836,1837,1838,1839,1840,1841,1842,1843,1844,1845,1846,1847,1848
1849,1850,1851,1852,1853,1854,1855,1856,1857,1858,1859,1860,1861,1862,1863,1864
1865,1866,1867,1868,1869,1870,1871,1872,1873,1874,1875,1876,1877,1878,1879,1880
1881,1882,1883,1884,1885,1886,1887,1888,1889,1890,1891,1892,1893,1894,1895,1896
1897,1898,1899,1900,1901,1902,1903,1904,1905,1906,1907,1908,1909,1910,1911,1912
1913,1914,1915,1916,1917,1918,1919,1920,1921,1922,1923,1924,1925,1926,1927,1928
1929,1930,1931,1932,1933,1934,1935,1936,1937,1938,1939,1940,1941,1942,1943,1944
1945,1946,1947,1948,1949,1950,1951,1952,1953,1954,1955,1956,1957,1958,1959,1960
** ... 6 like lines cut
*ELSET,ELSET=EPROBES
694,1535,2027,178
*NSET,NSET=NFIXED
1000001,1000002,1000003,1000004,1000005,1000006,1000007,1000008,1000009,1000010,1000011,1000012,1000013,1000014,1000015,1000016
1000017,1000018,1000019,1000020,1000021,1001001,1001002,1001003,1001004,1001005,1001006,1001007,1001008,1001009,1001010,1001011
1001012,1001013,1001014,1001015,1001016,1001017,1001018,1001019,1001020,1001021,1002001,1002002,1002003,1002004,1002005,1002006
1002007,1002008,1002009,1002010,1002011,1002012,1002013,1002014,1002015,1002016,1002017,1002018,1002019,1002020,1002021,1003001
1003002,1003003,1003004,1003005,1003006,1003007,1003008,1003009,1003010,1003011,1003012,1003013,1003014,1003015,1003016,1003017
1003018,1003019,1003020,1003021,1004001,1004002,1004003,1004004,1004005,1004006,1004007,1004008,1004009,1004010,1004011,1004012
1004013,1004014,1004015,1004016,1004017,1004018,1004019,1004020,1004021,1005001,1005002,1005003,1005004,1005005,1005006,1005007
1005008,1005009,1005010,1005011,1005012,1005013,1005014,1005015,1005016,1005017,1005018,1005019,1005020,1005021,1006001,1006002
1006003,1006004,1006005,1006006,1006007,1006008,1006009,1006010,1006011,1006012,1006013,1006014,1006015,1006016,1006017,1006018
1006019,1006020,1006021,1007001,1007002,1007003,1007004,1007005,1007006,1007007,1007008,1007009,1007010,1007011,1007012,1007013
1007014,1007015,1007016,1007017,1007018,1007019,1007020,1007021,1008001,1008002,1008003,1008004,1008005,1008006,1008007,1008008
1008009,1008013,1008014,1008015,1008016,1008017,1008018,1008019,1008020,1008021,1009001,1009002,1009003,1009004,1009005,1009006
1009007,1009008,1009014,1009015,1009016,1009017,1009018,1009019,1009020,1009021,1010001,1010002,1010003,1010004,1010005,1010006
1010007,1010008,1010014,1010015,1010016,1010017,1010018,1010019,1010020,1010021,1011001,1011002,1011003,1011004,1011005,1011006
1011007,1011008,1011014,1011015,1011016,1011017,1011018,1011019,1011020,1011021,1012001,1012002,1012003,1012004,1012005,1012006
1012007,1012008,1012009,1012013,1012014,1012015,1012016,1012017,1012018,1012019,1012020,1012021,1013001,1013002,1013003,1013004
1013005,1013006,1013007,1013008,1013009,1013010,1013011,1013012,1013013,1013014,1013015,1013016,1013017,1013018,1013019,1013020
1013021,1014001,1014002,1014003,1014004,1014005,1014006,1014007,1014008,1014009,1014010,1014011,1014012,1014013,1014014,1014015
1014016,1014017,1014018,1014019,1014020,1014021,1015001,1015002,1015003,1015004,1015005,1015006,1015007,1015008,1015009,1015010
1015011,1015012,1015013,1015014,1015015,1015016,1015017,1015018,1015019,1015020,1015021,1016001,1016002,1016003,1016004,1016005
** ... 7 like lines cut
*NSET,NSET=NRP
99000000
*NSET,NSET=NS_ARM_SPIDER
10004009,10004010,10005008,10005009,10005010,10007016,10008016,10008017,10009016,10009017,10011005,10011006,10012005,10012006,10013006,10015012
10015013,10015014,10016012,10016013
*NSET,NSET=NS_M5_1
7012018,7013017,7013018,7013019,7014018,8012018,8013017,8013018,8013019,8014018
*NSET,NSET=NS_M5_2
7016014,7017013,7017014,7017015,7018014,8016014,8017013,8017014,8017015,8018014
*NSET,NSET=NS_M5_3
7016008,7017007,7017008,7017009,7018008,8016008,8017007,8017008,8017009,8018008
*NSET,NSET=NS_M5_4
7012004,7013003,7013004,7013005,7014004,8012004,8013003,8013004,8013005,8014004
*NSET,NSET=NS_M5_5
7006004,7007003,7007004,7007005,7008004,8006004,8007003,8007004,8007005,8008004
*NSET,NSET=NS_M5_6
7002008,7003007,7003008,7003009,7004008,8002008,8003007,8003008,8003009,8004008
*NSET,NSET=NS_M5_7
7002014,7003013,7003014,7003015,7004014,8002014,8003013,8003014,8003015,8004014
*NSET,NSET=NS_M5_8
7006018,7007017,7007018,7007019,7008018,8006018,8007017,8007018,8007019,8008018
*NSET,NSET=NS_M6_1
3018019,3018020,3018021,3019019,3019020,3019021,3020019,3020020,4018019,4018020,4018021,4019019,4019020,4019021,4020019,4020020
*NSET,NSET=NS_M6_2
3000019,3000020,3001019,3001020,3001021,3002019,3002020,3002021,4000019,4000020,4001019,4001020,4001021,4002019,4002020,4002021
*NSET,NSET=NS_M6_3
3018001,3018002,3018003,3019001,3019002,3019003,3020002,3020003,4018001,4018002,4018003,4019001,4019002,4019003,4020002,4020003
*NSET,NSET=NS_M6_4
3000002,3000003,3001001,3001002,3001003,3002001,3002002,3002003,4000002,4000003,4001001,4001002,4001003,4002001,4002002,4002003
*MATERIAL,NAME=AL6061_T6_CAND
*ELASTIC
68300.0,0.33
*DENSITY
2.700e-09
*SOLID SECTION,ELSET=EBRIDGE,MATERIAL=AL6061_T6_CAND
*SOLID SECTION,ELSET=ESTAGEB,MATERIAL=AL6061_T6_CAND
*SOLID SECTION,ELSET=ESTAGEA,MATERIAL=AL6061_T6_CAND
*BOUNDARY
NFIXED,ENCASTRE
** joint couplings (bolt-disk rigid zones) -- identical to solved FEA-1
*SURFACE,TYPE=NODE,NAME=S_NS_ARM_SPIDER
NS_ARM_SPIDER,
*SURFACE,TYPE=NODE,NAME=S_NS_M5_1
NS_M5_1,
*SURFACE,TYPE=NODE,NAME=S_NS_M5_2
NS_M5_2,
*SURFACE,TYPE=NODE,NAME=S_NS_M5_3
NS_M5_3,
*SURFACE,TYPE=NODE,NAME=S_NS_M5_4
NS_M5_4,
*SURFACE,TYPE=NODE,NAME=S_NS_M5_5
NS_M5_5,
*SURFACE,TYPE=NODE,NAME=S_NS_M5_6
NS_M5_6,
*SURFACE,TYPE=NODE,NAME=S_NS_M5_7
NS_M5_7,
*SURFACE,TYPE=NODE,NAME=S_NS_M5_8
NS_M5_8,
*SURFACE,TYPE=NODE,NAME=S_NS_M6_1
NS_M6_1,
*SURFACE,TYPE=NODE,NAME=S_NS_M6_2
NS_M6_2,
*SURFACE,TYPE=NODE,NAME=S_NS_M6_3
NS_M6_3,
*SURFACE,TYPE=NODE,NAME=S_NS_M6_4
NS_M6_4,
*COUPLING,CONSTRAINT NAME=M6_1,REF NODE=99000100,SURFACE=S_NS_M6_1
*KINEMATIC
1,6
*COUPLING,CONSTRAINT NAME=M6_2,REF NODE=99000101,SURFACE=S_NS_M6_2
*KINEMATIC
1,6
*COUPLING,CONSTRAINT NAME=M6_3,REF NODE=99000102,SURFACE=S_NS_M6_3
*KINEMATIC
1,6
*COUPLING,CONSTRAINT NAME=M6_4,REF NODE=99000103,SURFACE=S_NS_M6_4
*KINEMATIC
1,6
*COUPLING,CONSTRAINT NAME=M5_1,REF NODE=99000200,SURFACE=S_NS_M5_1
*KINEMATIC
1,6
*COUPLING,CONSTRAINT NAME=M5_2,REF NODE=99000201,SURFACE=S_NS_M5_2
*KINEMATIC
1,6
*COUPLING,CONSTRAINT NAME=M5_3,REF NODE=99000202,SURFACE=S_NS_M5_3
*KINEMATIC
1,6
*COUPLING,CONSTRAINT NAME=M5_4,REF NODE=99000203,SURFACE=S_NS_M5_4
*KINEMATIC
1,6
*COUPLING,CONSTRAINT NAME=M5_5,REF NODE=99000204,SURFACE=S_NS_M5_5
*KINEMATIC
1,6
*COUPLING,CONSTRAINT NAME=M5_6,REF NODE=99000205,SURFACE=S_NS_M5_6
*KINEMATIC
1,6
*COUPLING,CONSTRAINT NAME=M5_7,REF NODE=99000206,SURFACE=S_NS_M5_7
*KINEMATIC
1,6
*COUPLING,CONSTRAINT NAME=M5_8,REF NODE=99000207,SURFACE=S_NS_M5_8
*KINEMATIC
1,6
*COUPLING,CONSTRAINT NAME=ARM_SPIDER,REF NODE=99000000,SURFACE=S_NS_ARM_SPIDER
*KINEMATIC
1,6
*STEP,NAME=QS_STEP,NLGEOM=NO
*STATIC
1.0,1.0
*CLOAD
99000000,2,7.21244
99000000,6,1846.1363212000001
*NODE PRINT,NSET=NFIXED
RF
*NODE PRINT,NSET=NRP
U
*EL PRINT,ELSET=EPROBES
S
*ENERGY PRINT
*OUTPUT,FIELD,VARIABLE=PRESELECT
*OUTPUT,HISTORY
*ENERGY OUTPUT
*END STEP
