*HEADING
FEA1B_M3R_INTERFACE  case=CAPTURE_150KG_QS  mesh=Z8_ZR_N20K8  eltype=C3D8I  material=AL6061_T6_CAND
M7 WP7 FEA_OPERATIONAL element-formulation closure (ODR-11/ODR-12).
Units: N, mm, MPa, tonne. Linear static. DESIGN_INDICATIVE results only.
** ELEMENT_FORMULATION: C3D8I -- incompatible-mode 8-node hex, 2x2x2 full integration, no hourglass modes, incompatible modes relieve shear locking in bending-dominated thin features (PRIMARY choice)
** MESH_SERIES: Z_REFINEMENT_FIXED_INPLANE  n_xy=20 (pitch 8 mm)  kz=8
** ASSUMPTION: LINEAR_STATIC_SMALL_DISPLACEMENT (NLGEOM off; loads are milli-g level)
** ASSUMPTION: BUS_SIDE_ENCASTRE_ASSUMPTION: BC-BUS-001 bus stiffness authority is HOLD; z=0 face fully clamped = stiff-boundary design bound
** ASSUMPTION: BOLT_DISK_KINEMATIC_COUPLING_ASSUMPTION: M6/M5/M4 joints modelled as rigid coupling disks (r_b=12/10/10 mm, auto-grow to >=1 node/face, recorded); no preload, no friction, no slip
** ASSUMPTION: ARM_BASE_RIGID_SPIDER_ASSUMPTION: B601 base flange stiffness >> 8 mm ring; single RP spider onto 4 as-built M4 disks; sensitivity covered by the 3-level mesh convergence series (CDR rigid_spider rule)
** ASSUMPTION: NO_CONTACT_NO_PRELOAD_NO_FRICTION: CDR joint mechanics HOLD; faces outside bolt disks untied (separation/interpenetration possible; Level-1 bound)
** ASSUMPTION: STAGE_B_IDEALIZED_ANNULAR_PLATE: pocket/recess not resolved; bore dia100 through bottom 2 layers; centre web r<50 modelled 4.0 mm (real 5.595)
** ASSUMPTION: STAGE_A_IDEALIZED_UNIFORM_RING: OD150/ID40 x 8.0 uniform; spigot, recess, counterbores not resolved
** ASSUMPTION: BRIDGE_CORNER_RADIUS_OMITTED: R4 corners modelled square; all boundaries stepped at element corners
** ASSUMPTION: SMALL_HOLES_NOT_CUT: dia6.6/5.5/4.6 holes represented by coupling disks, not voids (locally stiffer); hole-edge peak stress NOT qualified here
** ASSUMPTION: POISSON_ASSUMPTION: nu=0.33 for both Al candidates (not in M6 library)
** ASSUMPTION: MATERIALS_CANDIDATE: 6061-T6 / 7075-T651 elastic constants from M6 WP4 library, classification PROTOTYPE_CANDIDATE; margins DESIGN_INDICATIVE only
** ASSUMPTION: DYNAMIC_FACTOR_ASSUMPTION: quasi-static equivalence F_eq=DAF*J/dt, DAF=2.0, dt=0.1 s; both declared assumptions, research-bound
** ASSUMPTION: LOAD_DIRECTION_ASSUMPTION: transverse +y force plus bending moment about +z; worst-axis alignment declared (near-axisymmetric stack)
** ASSUMPTION: MEMORY_GATE_MESH_ADAPTATION: seeds 16/10/8 mm replace draft 4/2/1 mm; <=4000 C3D8R; 6.7 mm ligament NOT resolved with 3 elements; convergence assessed on global maxima trend only
** ASSUMPTION: ARM_LOADS_BOUNDED_BY_ASSUMPTION: quintic peak accel from LC-010 trajectory x r_eff=0.7 m; e-stop = 2x maneuver; arm inertia tensor not reduced (arm cases shown to be non-governing)
** ASSUMPTION: ELEMENT_FORMULATION_CHANGE: C3D8R (1 IP + hourglass control) replaced by C3D8I (2x2x2 full integration + incompatible modes). No hourglass modes exist in C3D8I, so ALLAE must collapse to ~0; this is the acceptance test
** ASSUMPTION: IP_COUNT_COMPARABILITY: C3D8R reports 1 centroidal integration point, so its 'peak von Mises' is already an element-average; C3D8I reports 8 Gauss points, whose peak is systematically above the element average in a bending field. C3D8R peak must therefore be compared against the C3D8I ELEMENT-AVERAGED value, not against the C3D8I peak IP value
** ASSUMPTION: THROUGH_THICKNESS_REFINEMENT: kz multiplies the layer count of every z segment (bridge 2kz, stage B annulus 2kz, stage B web 1kz, stage A 2kz); kz=1 reproduces the FEA-1 plane list node-for-node
** ASSUMPTION: STAIRCASE_BOUNDARY_SINGULARITY: the dia-40 / dia-100 / OD-150 circular boundaries are stepped at element corners, so each in-plane refinement level presents a DIFFERENT discrete re-entrant-corner set. Peak stress at those steps cannot converge by construction and is excluded from the region-stress convergence metric (fixed 10 mm geometric band)
** ASSUMPTION: POINT_COUPLING_SINGULARITY: the arm-base RP kinematic coupling and the per-bolt kinematic couplings are point/patch constraints; peak stress in their immediate neighbourhood rises monotonically with refinement as a constraint singularity and is reported separately (ODR-11 singularity rule), with a fixed 15 mm exclusion radius for the far-field metric
** Case load: F_y=13.552659999999999 N, M_z=19073.267958599998 N*mm (F=DAF*J/dt; M=F*L_grasp+DAF*C/dt (envelope row CAP150_030))
**
*NODE
1000001,-80.000000,-80.000000,0.000000
1000002,-72.000000,-80.000000,0.000000
1000003,-64.000000,-80.000000,0.000000
1000004,-56.000000,-80.000000,0.000000
1000005,-48.000000,-80.000000,0.000000
1000006,-40.000000,-80.000000,0.000000
1000007,-32.000000,-80.000000,0.000000
1000008,-24.000000,-80.000000,0.000000
1000009,-16.000000,-80.000000,0.000000
1000010,-8.000000,-80.000000,0.000000
1000011,0.000000,-80.000000,0.000000
1000012,8.000000,-80.000000,0.000000
1000013,16.000000,-80.000000,0.000000
1000014,24.000000,-80.000000,0.000000
1000015,32.000000,-80.000000,0.000000
1000016,40.000000,-80.000000,0.000000
1000017,48.000000,-80.000000,0.000000
1000018,56.000000,-80.000000,0.000000
1000019,64.000000,-80.000000,0.000000
1000020,72.000000,-80.000000,0.000000
** ... 20574 like lines cut
*ELEMENT,TYPE=C3D8I,ELSET=EALL
1,1000001,1000002,1001002,1001001,2000001,2000002,2001002,2001001
2,1000002,1000003,1001003,1001002,2000002,2000003,2001003,2001002
3,1000003,1000004,1001004,1001003,2000003,2000004,2001004,2001003
4,1000004,1000005,1001005,1001004,2000004,2000005,2001005,2001004
5,1000005,1000006,1001006,1001005,2000005,2000006,2001006,2001005
6,1000006,1000007,1001007,1001006,2000006,2000007,2001007,2001006
7,1000007,1000008,1001008,1001007,2000007,2000008,2001008,2001007
8,1000008,1000009,1001009,1001008,2000008,2000009,2001009,2001008
9,1000009,1000010,1001010,1001009,2000009,2000010,2001010,2001009
10,1000010,1000011,1001011,1001010,2000010,2000011,2001011,2001010
11,1000011,1000012,1001012,1001011,2000011,2000012,2001012,2001011
12,1000012,1000013,1001013,1001012,2000012,2000013,2001013,2001012
13,1000013,1000014,1001014,1001013,2000013,2000014,2001014,2001013
14,1000014,1000015,1001015,1001014,2000014,2000015,2001015,2001014
15,1000015,1000016,1001016,1001015,2000015,2000016,2001016,2001015
16,1000016,1000017,1001017,1001016,2000016,2000017,2001017,2001016
17,1000017,1000018,1001018,1001017,2000017,2000018,2001018,2001017
18,1000018,1000019,1001019,1001018,2000018,2000019,2001019,2001018
19,1000019,1000020,1001020,1001019,2000019,2000020,2001020,2001019
20,1000020,1000021,1001021,1001020,2000020,2000021,2001021,2001020
** ... 16428 like lines cut
*ELSET,ELSET=EBRIDGE
1,2,3,4,5,6,7,8,9,10,11,12,13,14,15,16
17,18,19,20,21,22,23,24,25,26,27,28,29,30,31,32
33,34,35,36,37,38,39,40,41,42,43,44,45,46,47,48
49,50,51,52,53,54,55,56,57,58,59,60,61,62,63,64
65,66,67,68,69,70,71,72,73,74,75,76,77,78,79,80
81,82,83,84,85,86,87,88,89,90,91,92,93,94,95,96
97,98,99,100,101,102,103,104,105,106,107,108,109,110,111,112
113,114,115,116,117,118,119,120,121,122,123,124,125,126,127,128
129,130,131,132,133,134,135,136,137,138,139,140,141,142,143,144
145,146,147,148,149,150,151,152,153,154,155,156,157,158,159,160
161,162,163,164,165,166,167,168,169,170,171,172,173,174,175,176
177,178,179,180,181,182,183,184,185,186,187,188,189,190,191,192
193,194,195,196,197,198,199,200,201,202,203,204,205,206,207,208
209,210,211,212,213,214,215,216,217,218,219,220,221,222,223,224
225,226,227,228,229,230,231,232,233,234,235,236,237,238,239,240
241,242,243,244,245,246,247,248,249,250,251,252,253,254,255,256
257,258,259,260,261,262,263,264,265,266,267,268,269,270,271,272
273,274,275,276,277,278,279,280,281,282,283,284,285,286,287,288
289,290,291,292,293,294,295,296,297,298,299,300,301,302,303,304
305,306,307,308,309,310,311,312,313,314,315,316,317,318,319,320
** ... 348 like lines cut
*ELSET,ELSET=ESTAGEB
5889,5890,5891,5892,5893,5894,5895,5896,5897,5898,5899,5900,5901,5902,5903,5904
5905,5906,5907,5908,5909,5910,5911,5912,5913,5914,5915,5916,5917,5918,5919,5920
5921,5922,5923,5924,5925,5926,5927,5928,5929,5930,5931,5932,5933,5934,5935,5936
5937,5938,5939,5940,5941,5942,5943,5944,5945,5946,5947,5948,5949,5950,5951,5952
5953,5954,5955,5956,5957,5958,5959,5960,5961,5962,5963,5964,5965,5966,5967,5968
5969,5970,5971,5972,5973,5974,5975,5976,5977,5978,5979,5980,5981,5982,5983,5984
5985,5986,5987,5988,5989,5990,5991,5992,5993,5994,5995,5996,5997,5998,5999,6000
6001,6002,6003,6004,6005,6006,6007,6008,6009,6010,6011,6012,6013,6014,6015,6016
6017,6018,6019,6020,6021,6022,6023,6024,6025,6026,6027,6028,6029,6030,6031,6032
6033,6034,6035,6036,6037,6038,6039,6040,6041,6042,6043,6044,6045,6046,6047,6048
6049,6050,6051,6052,6053,6054,6055,6056,6057,6058,6059,6060,6061,6062,6063,6064
6065,6066,6067,6068,6069,6070,6071,6072,6073,6074,6075,6076,6077,6078,6079,6080
6081,6082,6083,6084,6085,6086,6087,6088,6089,6090,6091,6092,6093,6094,6095,6096
6097,6098,6099,6100,6101,6102,6103,6104,6105,6106,6107,6108,6109,6110,6111,6112
6113,6114,6115,6116,6117,6118,6119,6120,6121,6122,6123,6124,6125,6126,6127,6128
6129,6130,6131,6132,6133,6134,6135,6136,6137,6138,6139,6140,6141,6142,6143,6144
6145,6146,6147,6148,6149,6150,6151,6152,6153,6154,6155,6156,6157,6158,6159,6160
6161,6162,6163,6164,6165,6166,6167,6168,6169,6170,6171,6172,6173,6174,6175,6176
6177,6178,6179,6180,6181,6182,6183,6184,6185,6186,6187,6188,6189,6190,6191,6192
6193,6194,6195,6196,6197,6198,6199,6200,6201,6202,6203,6204,6205,6206,6207,6208
** ... 432 like lines cut
*ELSET,ELSET=ESTAGEA
13121,13122,13123,13124,13125,13126,13127,13128,13129,13130,13131,13132,13133,13134,13135,13136
13137,13138,13139,13140,13141,13142,13143,13144,13145,13146,13147,13148,13149,13150,13151,13152
13153,13154,13155,13156,13157,13158,13159,13160,13161,13162,13163,13164,13165,13166,13167,13168
13169,13170,13171,13172,13173,13174,13175,13176,13177,13178,13179,13180,13181,13182,13183,13184
13185,13186,13187,13188,13189,13190,13191,13192,13193,13194,13195,13196,13197,13198,13199,13200
13201,13202,13203,13204,13205,13206,13207,13208,13209,13210,13211,13212,13213,13214,13215,13216
13217,13218,13219,13220,13221,13222,13223,13224,13225,13226,13227,13228,13229,13230,13231,13232
13233,13234,13235,13236,13237,13238,13239,13240,13241,13242,13243,13244,13245,13246,13247,13248
13249,13250,13251,13252,13253,13254,13255,13256,13257,13258,13259,13260,13261,13262,13263,13264
13265,13266,13267,13268,13269,13270,13271,13272,13273,13274,13275,13276,13277,13278,13279,13280
13281,13282,13283,13284,13285,13286,13287,13288,13289,13290,13291,13292,13293,13294,13295,13296
13297,13298,13299,13300,13301,13302,13303,13304,13305,13306,13307,13308,13309,13310,13311,13312
13313,13314,13315,13316,13317,13318,13319,13320,13321,13322,13323,13324,13325,13326,13327,13328
13329,13330,13331,13332,13333,13334,13335,13336,13337,13338,13339,13340,13341,13342,13343,13344
13345,13346,13347,13348,13349,13350,13351,13352,13353,13354,13355,13356,13357,13358,13359,13360
13361,13362,13363,13364,13365,13366,13367,13368,13369,13370,13371,13372,13373,13374,13375,13376
13377,13378,13379,13380,13381,13382,13383,13384,13385,13386,13387,13388,13389,13390,13391,13392
13393,13394,13395,13396,13397,13398,13399,13400,13401,13402,13403,13404,13405,13406,13407,13408
13409,13410,13411,13412,13413,13414,13415,13416,13417,13418,13419,13420,13421,13422,13423,13424
13425,13426,13427,13428,13429,13430,13431,13432,13433,13434,13435,13436,13437,13438,13439,13440
** ... 188 like lines cut
*ELSET,ELSET=EPROBES
5846,10215,16419,2754
*NSET,NSET=NFIXED
1000001,1000002,1000003,1000004,1000005,1000006,1000007,1000008,1000009,1000010,1000011,1000012,1000013,1000014,1000015,1000016
1000017,1000018,1000019,1000020,1000021,1001001,1001002,1001003,1001004,1001005,1001006,1001007,1001008,1001009,1001010,1001011
1001012,1001013,1001014,1001015,1001016,1001017,1001018,1001019,1001020,1001021,1002001,1002002,1002003,1002004,1002005,1002006
1002007,1002008,1002009,1002010,1002011,1002012,1002013,1002014,1002015,1002016,1002017,1002018,1002019,1002020,1002021,1003001
1003002,1003003,1003004,1003005,1003006,1003007,1003008,1003009,1003010,1003011,1003012,1003013,1003014,1003015,1003016,1003017
1003018,1003019,1003020,1003021,1004001,1004002,1004003,1004004,1004005,1004006,1004007,1004008,1004009,1004010,1004011,1004012
1004013,1004014,1004015,1004016,1004017,1004018,1004019,1004020,1004021,1005001,1005002,1005003,1005004,1005005,1005006,1005007
1005008,1005009,1005010,1005011,1005012,1005013,1005014,1005015,1005016,1005017,1005018,1005019,1005020,1005021,1006001,1006002
1006003,1006004,1006005,1006006,1006007,1006008,1006009,1006010,1006011,1006012,1006013,1006014,1006015,1006016,1006017,1006018
1006019,1006020,1006021,1007001,1007002,1007003,1007004,1007005,1007006,1007007,1007008,1007009,1007010,1007011,1007012,1007013
1007014,1007015,1007016,1007017,1007018,1007019,1007020,1007021,1008001,1008002,1008003,1008004,1008005,1008006,1008007,1008008
1008009,1008013,1008014,1008015,1008016,1008017,1008018,1008019,1008020,1008021,1009001,1009002,1009003,1009004,1009005,1009006
1009007,1009008,1009014,1009015,1009016,1009017,1009018,1009019,1009020,1009021,1010001,1010002,1010003,1010004,1010005,1010006
1010007,1010008,1010014,1010015,1010016,1010017,1010018,1010019,1010020,1010021,1011001,1011002,1011003,1011004,1011005,1011006
1011007,1011008,1011014,1011015,1011016,1011017,1011018,1011019,1011020,1011021,1012001,1012002,1012003,1012004,1012005,1012006
1012007,1012008,1012009,1012013,1012014,1012015,1012016,1012017,1012018,1012019,1012020,1012021,1013001,1013002,1013003,1013004
1013005,1013006,1013007,1013008,1013009,1013010,1013011,1013012,1013013,1013014,1013015,1013016,1013017,1013018,1013019,1013020
1013021,1014001,1014002,1014003,1014004,1014005,1014006,1014007,1014008,1014009,1014010,1014011,1014012,1014013,1014014,1014015
1014016,1014017,1014018,1014019,1014020,1014021,1015001,1015002,1015003,1015004,1015005,1015006,1015007,1015008,1015009,1015010
1015011,1015012,1015013,1015014,1015015,1015016,1015017,1015018,1015019,1015020,1015021,1016001,1016002,1016003,1016004,1016005
** ... 7 like lines cut
*NSET,NSET=NRP
99000000
*NSET,NSET=NS_ARM_SPIDER
59004009,59004010,59005008,59005009,59005010,59007016,59008016,59008017,59009016,59009017,59011005,59011006,59012005,59012006,59013006,59015012
59015013,59015014,59016012,59016013
*NSET,NSET=NS_M5_1
42012018,42013017,42013018,42013019,42014018,43012018,43013017,43013018,43013019,43014018
*NSET,NSET=NS_M5_2
42016014,42017013,42017014,42017015,42018014,43016014,43017013,43017014,43017015,43018014
*NSET,NSET=NS_M5_3
42016008,42017007,42017008,42017009,42018008,43016008,43017007,43017008,43017009,43018008
*NSET,NSET=NS_M5_4
42012004,42013003,42013004,42013005,42014004,43012004,43013003,43013004,43013005,43014004
*NSET,NSET=NS_M5_5
42006004,42007003,42007004,42007005,42008004,43006004,43007003,43007004,43007005,43008004
*NSET,NSET=NS_M5_6
42002008,42003007,42003008,42003009,42004008,43002008,43003007,43003008,43003009,43004008
*NSET,NSET=NS_M5_7
42002014,42003013,42003014,42003015,42004014,43002014,43003013,43003014,43003015,43004014
*NSET,NSET=NS_M5_8
42006018,42007017,42007018,42007019,42008018,43006018,43007017,43007018,43007019,43008018
*NSET,NSET=NS_M6_1
17018019,17018020,17018021,17019019,17019020,17019021,17020019,17020020,18018019,18018020,18018021,18019019,18019020,18019021,18020019,18020020
*NSET,NSET=NS_M6_2
17000019,17000020,17001019,17001020,17001021,17002019,17002020,17002021,18000019,18000020,18001019,18001020,18001021,18002019,18002020,18002021
*NSET,NSET=NS_M6_3
17018001,17018002,17018003,17019001,17019002,17019003,17020002,17020003,18018001,18018002,18018003,18019001,18019002,18019003,18020002,18020003
*NSET,NSET=NS_M6_4
17000002,17000003,17001001,17001002,17001003,17002001,17002002,17002003,18000002,18000003,18001001,18001002,18001003,18002001,18002002,18002003
*MATERIAL,NAME=AL6061_T6_CAND
*ELASTIC
68300.0,0.33
*DENSITY
2.700e-09
*SOLID SECTION,ELSET=EBRIDGE,MATERIAL=AL6061_T6_CAND
*SOLID SECTION,ELSET=ESTAGEB,MATERIAL=AL6061_T6_CAND
*SOLID SECTION,ELSET=ESTAGEA,MATERIAL=AL6061_T6_CAND
*BOUNDARY
NFIXED,ENCASTRE
** joint couplings (bolt-disk rigid zones) -- identical to solved FEA-1
*SURFACE,TYPE=NODE,NAME=S_NS_ARM_SPIDER
NS_ARM_SPIDER,
*SURFACE,TYPE=NODE,NAME=S_NS_M5_1
NS_M5_1,
*SURFACE,TYPE=NODE,NAME=S_NS_M5_2
NS_M5_2,
*SURFACE,TYPE=NODE,NAME=S_NS_M5_3
NS_M5_3,
*SURFACE,TYPE=NODE,NAME=S_NS_M5_4
NS_M5_4,
*SURFACE,TYPE=NODE,NAME=S_NS_M5_5
NS_M5_5,
*SURFACE,TYPE=NODE,NAME=S_NS_M5_6
NS_M5_6,
*SURFACE,TYPE=NODE,NAME=S_NS_M5_7
NS_M5_7,
*SURFACE,TYPE=NODE,NAME=S_NS_M5_8
NS_M5_8,
*SURFACE,TYPE=NODE,NAME=S_NS_M6_1
NS_M6_1,
*SURFACE,TYPE=NODE,NAME=S_NS_M6_2
NS_M6_2,
*SURFACE,TYPE=NODE,NAME=S_NS_M6_3
NS_M6_3,
*SURFACE,TYPE=NODE,NAME=S_NS_M6_4
NS_M6_4,
*COUPLING,CONSTRAINT NAME=M6_1,REF NODE=99000100,SURFACE=S_NS_M6_1
*KINEMATIC
1,6
*COUPLING,CONSTRAINT NAME=M6_2,REF NODE=99000101,SURFACE=S_NS_M6_2
*KINEMATIC
1,6
*COUPLING,CONSTRAINT NAME=M6_3,REF NODE=99000102,SURFACE=S_NS_M6_3
*KINEMATIC
1,6
*COUPLING,CONSTRAINT NAME=M6_4,REF NODE=99000103,SURFACE=S_NS_M6_4
*KINEMATIC
1,6
*COUPLING,CONSTRAINT NAME=M5_1,REF NODE=99000200,SURFACE=S_NS_M5_1
*KINEMATIC
1,6
*COUPLING,CONSTRAINT NAME=M5_2,REF NODE=99000201,SURFACE=S_NS_M5_2
*KINEMATIC
1,6
*COUPLING,CONSTRAINT NAME=M5_3,REF NODE=99000202,SURFACE=S_NS_M5_3
*KINEMATIC
1,6
*COUPLING,CONSTRAINT NAME=M5_4,REF NODE=99000203,SURFACE=S_NS_M5_4
*KINEMATIC
1,6
*COUPLING,CONSTRAINT NAME=M5_5,REF NODE=99000204,SURFACE=S_NS_M5_5
*KINEMATIC
1,6
*COUPLING,CONSTRAINT NAME=M5_6,REF NODE=99000205,SURFACE=S_NS_M5_6
*KINEMATIC
1,6
*COUPLING,CONSTRAINT NAME=M5_7,REF NODE=99000206,SURFACE=S_NS_M5_7
*KINEMATIC
1,6
*COUPLING,CONSTRAINT NAME=M5_8,REF NODE=99000207,SURFACE=S_NS_M5_8
*KINEMATIC
1,6
*COUPLING,CONSTRAINT NAME=ARM_SPIDER,REF NODE=99000000,SURFACE=S_NS_ARM_SPIDER
*KINEMATIC
1,6
*STEP,NAME=QS_STEP,NLGEOM=NO
*STATIC
1.0,1.0
*CLOAD
99000000,2,13.552659999999999
99000000,6,19073.267958599998
*NODE PRINT,NSET=NFIXED
RF
*NODE PRINT,NSET=NRP
U
*EL PRINT,ELSET=EPROBES
S
*ENERGY PRINT
*OUTPUT,FIELD,VARIABLE=PRESELECT
*OUTPUT,HISTORY
*ENERGY OUTPUT
*END STEP
