*HEADING
FEA1B_M3R_INTERFACE  case=CAPTURE_150KG_QS  mesh=T4_TT_ULTRA  eltype=C3D8I  material=AL6061_T6_CAND
M7 WP7 FEA_OPERATIONAL element-formulation closure (ODR-11/ODR-12).
Units: N, mm, MPa, tonne. Linear static. DESIGN_INDICATIVE results only.
** ELEMENT_FORMULATION: C3D8I -- incompatible-mode 8-node hex, 2x2x2 full integration, no hourglass modes, incompatible modes relieve shear locking in bending-dominated thin features (PRIMARY choice)
** MESH_SERIES: THROUGH_THICKNESS  n_xy=32 (pitch 5 mm)  kz=4
** ASSUMPTION: LINEAR_STATIC_SMALL_DISPLACEMENT (NLGEOM off; loads are milli-g level)
** ASSUMPTION: BUS_SIDE_ENCASTRE_ASSUMPTION: BC-BUS-001 bus stiffness authority is HOLD; z=0 face fully clamped = stiff-boundary design bound
** ASSUMPTION: BOLT_DISK_KINEMATIC_COUPLING_ASSUMPTION: M6/M5/M4 joints modelled as rigid coupling disks (r_b=12/10/10 mm, auto-grow to >=1 node/face, recorded); no preload, no friction, no slip
** ASSUMPTION: ARM_BASE_RIGID_SPIDER_ASSUMPTION: B601 base flange stiffness >> 8 mm ring; single RP spider onto 4 as-built M4 disks; sensitivity covered by the 3-level mesh convergence series (CDR rigid_spider rule)
** ASSUMPTION: NO_CONTACT_NO_PRELOAD_NO_FRICTION: CDR joint mechanics HOLD; faces outside bolt disks untied (separation/interpenetration possible; Level-1 bound)
** ASSUMPTION: STAGE_B_IDEALIZED_ANNULAR_PLATE: pocket/recess not resolved; bore dia100 through bottom 2 layers; centre web r<50 modelled 4.0 mm (real 5.595)
** ASSUMPTION: STAGE_A_IDEALIZED_UNIFORM_RING: OD150/ID40 x 8.0 uniform; spigot, recess, counterbores not resolved
** ASSUMPTION: BRIDGE_CORNER_RADIUS_OMITTED: R4 corners modelled square; all boundaries stepped at element corners
** ASSUMPTION: SMALL_HOLES_NOT_CUT: dia6.6/5.5/4.6 holes represented by coupling disks, not voids (locally stiffer); hole-edge peak stress NOT qualified here
** ASSUMPTION: POISSON_ASSUMPTION: nu=0.33 for both Al candidates (not in M6 library)
** ASSUMPTION: MATERIALS_CANDIDATE: 6061-T6 / 7075-T651 elastic constants from M6 WP4 library, classification PROTOTYPE_CANDIDATE; margins DESIGN_INDICATIVE only
** ASSUMPTION: DYNAMIC_FACTOR_ASSUMPTION: quasi-static equivalence F_eq=DAF*J/dt, DAF=2.0, dt=0.1 s; both declared assumptions, research-bound
** ASSUMPTION: LOAD_DIRECTION_ASSUMPTION: transverse +y force plus bending moment about +z; worst-axis alignment declared (near-axisymmetric stack)
** ASSUMPTION: MEMORY_GATE_MESH_ADAPTATION: seeds 16/10/8 mm replace draft 4/2/1 mm; <=4000 C3D8R; 6.7 mm ligament NOT resolved with 3 elements; convergence assessed on global maxima trend only
** ASSUMPTION: ARM_LOADS_BOUNDED_BY_ASSUMPTION: quintic peak accel from LC-010 trajectory x r_eff=0.7 m; e-stop = 2x maneuver; arm inertia tensor not reduced (arm cases shown to be non-governing)
** ASSUMPTION: ELEMENT_FORMULATION_CHANGE: C3D8R (1 IP + hourglass control) replaced by C3D8I (2x2x2 full integration + incompatible modes). No hourglass modes exist in C3D8I, so ALLAE must collapse to ~0; this is the acceptance test
** ASSUMPTION: IP_COUNT_COMPARABILITY: C3D8R reports 1 centroidal integration point, so its 'peak von Mises' is already an element-average; C3D8I reports 8 Gauss points, whose peak is systematically above the element average in a bending field. C3D8R peak must therefore be compared against the C3D8I ELEMENT-AVERAGED value, not against the C3D8I peak IP value
** ASSUMPTION: THROUGH_THICKNESS_REFINEMENT: kz multiplies the layer count of every z segment (bridge 2kz, stage B annulus 2kz, stage B web 1kz, stage A 2kz); kz=1 reproduces the FEA-1 plane list node-for-node
** ASSUMPTION: STAIRCASE_BOUNDARY_SINGULARITY: the dia-40 / dia-100 / OD-150 circular boundaries are stepped at element corners, so each in-plane refinement level presents a DIFFERENT discrete re-entrant-corner set. Peak stress at those steps cannot converge by construction and is excluded from the region-stress convergence metric (fixed 10 mm geometric band)
** ASSUMPTION: POINT_COUPLING_SINGULARITY: the arm-base RP kinematic coupling and the per-bolt kinematic couplings are point/patch constraints; peak stress in their immediate neighbourhood rises monotonically with refinement as a constraint singularity and is reported separately (ODR-11 singularity rule), with a fixed 15 mm exclusion radius for the far-field metric
** Case load: F_y=13.552659999999999 N, M_z=19073.267958599998 N*mm (F=DAF*J/dt; M=F*L_grasp+DAF*C/dt (envelope row CAP150_030))
**
*NODE
1000001,-80.000000,-80.000000,0.000000
1000002,-75.000000,-80.000000,0.000000
1000003,-70.000000,-80.000000,0.000000
1000004,-65.000000,-80.000000,0.000000
1000005,-60.000000,-80.000000,0.000000
1000006,-55.000000,-80.000000,0.000000
1000007,-50.000000,-80.000000,0.000000
1000008,-45.000000,-80.000000,0.000000
1000009,-40.000000,-80.000000,0.000000
1000010,-35.000000,-80.000000,0.000000
1000011,-30.000000,-80.000000,0.000000
1000012,-25.000000,-80.000000,0.000000
1000013,-20.000000,-80.000000,0.000000
1000014,-15.000000,-80.000000,0.000000
1000015,-10.000000,-80.000000,0.000000
1000016,-5.000000,-80.000000,0.000000
1000017,0.000000,-80.000000,0.000000
1000018,5.000000,-80.000000,0.000000
1000019,10.000000,-80.000000,0.000000
1000020,15.000000,-80.000000,0.000000
** ... 27082 like lines cut
*ELEMENT,TYPE=C3D8I,ELSET=EALL
1,1000001,1000002,1001002,1001001,2000001,2000002,2001002,2001001
2,1000002,1000003,1001003,1001002,2000002,2000003,2001003,2001002
3,1000003,1000004,1001004,1001003,2000003,2000004,2001004,2001003
4,1000004,1000005,1001005,1001004,2000004,2000005,2001005,2001004
5,1000005,1000006,1001006,1001005,2000005,2000006,2001006,2001005
6,1000006,1000007,1001007,1001006,2000006,2000007,2001007,2001006
7,1000007,1000008,1001008,1001007,2000007,2000008,2001008,2001007
8,1000008,1000009,1001009,1001008,2000008,2000009,2001009,2001008
9,1000009,1000010,1001010,1001009,2000009,2000010,2001010,2001009
10,1000010,1000011,1001011,1001010,2000010,2000011,2001011,2001010
11,1000011,1000012,1001012,1001011,2000011,2000012,2001012,2001011
12,1000012,1000013,1001013,1001012,2000012,2000013,2001013,2001012
13,1000013,1000014,1001014,1001013,2000013,2000014,2001014,2001013
14,1000014,1000015,1001015,1001014,2000014,2000015,2001015,2001014
15,1000015,1000016,1001016,1001015,2000015,2000016,2001016,2001015
16,1000016,1000017,1001017,1001016,2000016,2000017,2001017,2001016
17,1000017,1000018,1001018,1001017,2000017,2000018,2001018,2001017
18,1000018,1000019,1001019,1001018,2000018,2000019,2001019,2001018
19,1000019,1000020,1001020,1001019,2000019,2000020,2001020,2001019
20,1000020,1000021,1001021,1001020,2000020,2000021,2001021,2001020
** ... 21932 like lines cut
*ELSET,ELSET=EBRIDGE
1,2,3,4,5,6,7,8,9,10,11,12,13,14,15,16
17,18,19,20,21,22,23,24,25,26,27,28,29,30,31,32
33,34,35,36,37,38,39,40,41,42,43,44,45,46,47,48
49,50,51,52,53,54,55,56,57,58,59,60,61,62,63,64
65,66,67,68,69,70,71,72,73,74,75,76,77,78,79,80
81,82,83,84,85,86,87,88,89,90,91,92,93,94,95,96
97,98,99,100,101,102,103,104,105,106,107,108,109,110,111,112
113,114,115,116,117,118,119,120,121,122,123,124,125,126,127,128
129,130,131,132,133,134,135,136,137,138,139,140,141,142,143,144
145,146,147,148,149,150,151,152,153,154,155,156,157,158,159,160
161,162,163,164,165,166,167,168,169,170,171,172,173,174,175,176
177,178,179,180,181,182,183,184,185,186,187,188,189,190,191,192
193,194,195,196,197,198,199,200,201,202,203,204,205,206,207,208
209,210,211,212,213,214,215,216,217,218,219,220,221,222,223,224
225,226,227,228,229,230,231,232,233,234,235,236,237,238,239,240
241,242,243,244,245,246,247,248,249,250,251,252,253,254,255,256
257,258,259,260,261,262,263,264,265,266,267,268,269,270,271,272
273,274,275,276,277,278,279,280,281,282,283,284,285,286,287,288
289,290,291,292,293,294,295,296,297,298,299,300,301,302,303,304
305,306,307,308,309,310,311,312,313,314,315,316,317,318,319,320
** ... 462 like lines cut
*ELSET,ELSET=ESTAGEB
7713,7714,7715,7716,7717,7718,7719,7720,7721,7722,7723,7724,7725,7726,7727,7728
7729,7730,7731,7732,7733,7734,7735,7736,7737,7738,7739,7740,7741,7742,7743,7744
7745,7746,7747,7748,7749,7750,7751,7752,7753,7754,7755,7756,7757,7758,7759,7760
7761,7762,7763,7764,7765,7766,7767,7768,7769,7770,7771,7772,7773,7774,7775,7776
7777,7778,7779,7780,7781,7782,7783,7784,7785,7786,7787,7788,7789,7790,7791,7792
7793,7794,7795,7796,7797,7798,7799,7800,7801,7802,7803,7804,7805,7806,7807,7808
7809,7810,7811,7812,7813,7814,7815,7816,7817,7818,7819,7820,7821,7822,7823,7824
7825,7826,7827,7828,7829,7830,7831,7832,7833,7834,7835,7836,7837,7838,7839,7840
7841,7842,7843,7844,7845,7846,7847,7848,7849,7850,7851,7852,7853,7854,7855,7856
7857,7858,7859,7860,7861,7862,7863,7864,7865,7866,7867,7868,7869,7870,7871,7872
7873,7874,7875,7876,7877,7878,7879,7880,7881,7882,7883,7884,7885,7886,7887,7888
7889,7890,7891,7892,7893,7894,7895,7896,7897,7898,7899,7900,7901,7902,7903,7904
7905,7906,7907,7908,7909,7910,7911,7912,7913,7914,7915,7916,7917,7918,7919,7920
7921,7922,7923,7924,7925,7926,7927,7928,7929,7930,7931,7932,7933,7934,7935,7936
7937,7938,7939,7940,7941,7942,7943,7944,7945,7946,7947,7948,7949,7950,7951,7952
7953,7954,7955,7956,7957,7958,7959,7960,7961,7962,7963,7964,7965,7966,7967,7968
7969,7970,7971,7972,7973,7974,7975,7976,7977,7978,7979,7980,7981,7982,7983,7984
7985,7986,7987,7988,7989,7990,7991,7992,7993,7994,7995,7996,7997,7998,7999,8000
8001,8002,8003,8004,8005,8006,8007,8008,8009,8010,8011,8012,8013,8014,8015,8016
8017,8018,8019,8020,8021,8022,8023,8024,8025,8026,8027,8028,8029,8030,8031,8032
** ... 576 like lines cut
*ELSET,ELSET=ESTAGEA
17249,17250,17251,17252,17253,17254,17255,17256,17257,17258,17259,17260,17261,17262,17263,17264
17265,17266,17267,17268,17269,17270,17271,17272,17273,17274,17275,17276,17277,17278,17279,17280
17281,17282,17283,17284,17285,17286,17287,17288,17289,17290,17291,17292,17293,17294,17295,17296
17297,17298,17299,17300,17301,17302,17303,17304,17305,17306,17307,17308,17309,17310,17311,17312
17313,17314,17315,17316,17317,17318,17319,17320,17321,17322,17323,17324,17325,17326,17327,17328
17329,17330,17331,17332,17333,17334,17335,17336,17337,17338,17339,17340,17341,17342,17343,17344
17345,17346,17347,17348,17349,17350,17351,17352,17353,17354,17355,17356,17357,17358,17359,17360
17361,17362,17363,17364,17365,17366,17367,17368,17369,17370,17371,17372,17373,17374,17375,17376
17377,17378,17379,17380,17381,17382,17383,17384,17385,17386,17387,17388,17389,17390,17391,17392
17393,17394,17395,17396,17397,17398,17399,17400,17401,17402,17403,17404,17405,17406,17407,17408
17409,17410,17411,17412,17413,17414,17415,17416,17417,17418,17419,17420,17421,17422,17423,17424
17425,17426,17427,17428,17429,17430,17431,17432,17433,17434,17435,17436,17437,17438,17439,17440
17441,17442,17443,17444,17445,17446,17447,17448,17449,17450,17451,17452,17453,17454,17455,17456
17457,17458,17459,17460,17461,17462,17463,17464,17465,17466,17467,17468,17469,17470,17471,17472
17473,17474,17475,17476,17477,17478,17479,17480,17481,17482,17483,17484,17485,17486,17487,17488
17489,17490,17491,17492,17493,17494,17495,17496,17497,17498,17499,17500,17501,17502,17503,17504
17505,17506,17507,17508,17509,17510,17511,17512,17513,17514,17515,17516,17517,17518,17519,17520
17521,17522,17523,17524,17525,17526,17527,17528,17529,17530,17531,17532,17533,17534,17535,17536
17537,17538,17539,17540,17541,17542,17543,17544,17545,17546,17547,17548,17549,17550,17551,17552
17553,17554,17555,17556,17557,17558,17559,17560,17561,17562,17563,17564,17565,17566,17567,17568
** ... 274 like lines cut
*ELSET,ELSET=EPROBES
7613,13912,21860,3363
*NSET,NSET=NFIXED
1000001,1000002,1000003,1000004,1000005,1000006,1000007,1000008,1000009,1000010,1000011,1000012,1000013,1000014,1000015,1000016
1000017,1000018,1000019,1000020,1000021,1000022,1000023,1000024,1000025,1000026,1000027,1000028,1000029,1000030,1000031,1000032
1000033,1001001,1001002,1001003,1001004,1001005,1001006,1001007,1001008,1001009,1001010,1001011,1001012,1001013,1001014,1001015
1001016,1001017,1001018,1001019,1001020,1001021,1001022,1001023,1001024,1001025,1001026,1001027,1001028,1001029,1001030,1001031
1001032,1001033,1002001,1002002,1002003,1002004,1002005,1002006,1002007,1002008,1002009,1002010,1002011,1002012,1002013,1002014
1002015,1002016,1002017,1002018,1002019,1002020,1002021,1002022,1002023,1002024,1002025,1002026,1002027,1002028,1002029,1002030
1002031,1002032,1002033,1003001,1003002,1003003,1003004,1003005,1003006,1003007,1003008,1003009,1003010,1003011,1003012,1003013
1003014,1003015,1003016,1003017,1003018,1003019,1003020,1003021,1003022,1003023,1003024,1003025,1003026,1003027,1003028,1003029
1003030,1003031,1003032,1003033,1004001,1004002,1004003,1004004,1004005,1004006,1004007,1004008,1004009,1004010,1004011,1004012
1004013,1004014,1004015,1004016,1004017,1004018,1004019,1004020,1004021,1004022,1004023,1004024,1004025,1004026,1004027,1004028
1004029,1004030,1004031,1004032,1004033,1005001,1005002,1005003,1005004,1005005,1005006,1005007,1005008,1005009,1005010,1005011
1005012,1005013,1005014,1005015,1005016,1005017,1005018,1005019,1005020,1005021,1005022,1005023,1005024,1005025,1005026,1005027
1005028,1005029,1005030,1005031,1005032,1005033,1006001,1006002,1006003,1006004,1006005,1006006,1006007,1006008,1006009,1006010
1006011,1006012,1006013,1006014,1006015,1006016,1006017,1006018,1006019,1006020,1006021,1006022,1006023,1006024,1006025,1006026
1006027,1006028,1006029,1006030,1006031,1006032,1006033,1007001,1007002,1007003,1007004,1007005,1007006,1007007,1007008,1007009
1007010,1007011,1007012,1007013,1007014,1007015,1007016,1007017,1007018,1007019,1007020,1007021,1007022,1007023,1007024,1007025
1007026,1007027,1007028,1007029,1007030,1007031,1007032,1007033,1008001,1008002,1008003,1008004,1008005,1008006,1008007,1008008
1008009,1008010,1008011,1008012,1008013,1008014,1008015,1008016,1008017,1008018,1008019,1008020,1008021,1008022,1008023,1008024
1008025,1008026,1008027,1008028,1008029,1008030,1008031,1008032,1008033,1009001,1009002,1009003,1009004,1009005,1009006,1009007
1009008,1009009,1009010,1009011,1009012,1009013,1009014,1009015,1009016,1009017,1009018,1009019,1009020,1009021,1009022,1009023
** ... 46 like lines cut
*NSET,NSET=NRP
99000000
*NSET,NSET=NS_ARM_SPIDER
31006013,31006014,31006015,31007012,31007013,31007014,31007015,31008012,31008013,31008014,31008015,31009013,31009014,31009015,31011025,31011026
31012024,31012025,31012026,31012027,31013024,31013025,31013026,31013027,31014024,31014025,31014026,31014027,31018007,31018008,31018009,31018010
31019007,31019008,31019009,31019010,31020007,31020008,31020009,31020010,31021008,31021009,31023019,31023020,31023021,31024019,31024020,31024021
31024022,31025019,31025020,31025021,31025022,31026019,31026020,31026021
*NSET,NSET=NS_M5_1
22019028,22019029,22020027,22020028,22020029,22020030,22021027,22021028,22021029,22021030,22022027,22022028,22022029,22022030,23019028,23019029
23020027,23020028,23020029,23020030,23021027,23021028,23021029,23021030,23022027,23022028,23022029,23022030
*NSET,NSET=NS_M5_2
22026021,22026022,22026023,22027020,22027021,22027022,22027023,22028020,22028021,22028022,22028023,22029021,22029022,22029023,23026021,23026022
23026023,23027020,23027021,23027022,23027023,23028020,23028021,23028022,23028023,23029021,23029022,23029023
*NSET,NSET=NS_M5_3
22026011,22026012,22026013,22027011,22027012,22027013,22027014,22028011,22028012,22028013,22028014,22029011,22029012,22029013,23026011,23026012
23026013,23027011,23027012,23027013,23027014,23028011,23028012,23028013,23028014,23029011,23029012,23029013
*NSET,NSET=NS_M5_4
22019005,22019006,22020004,22020005,22020006,22020007,22021004,22021005,22021006,22021007,22022004,22022005,22022006,22022007,23019005,23019006
23020004,23020005,23020006,23020007,23021004,23021005,23021006,23021007,23022004,23022005,23022006,23022007
*NSET,NSET=NS_M5_5
22010004,22010005,22010006,22010007,22011004,22011005,22011006,22011007,22012004,22012005,22012006,22012007,22013005,22013006,23010004,23010005
23010006,23010007,23011004,23011005,23011006,23011007,23012004,23012005,23012006,23012007,23013005,23013006
*NSET,NSET=NS_M5_6
22003011,22003012,22003013,22004011,22004012,22004013,22004014,22005011,22005012,22005013,22005014,22006011,22006012,22006013,23003011,23003012
23003013,23004011,23004012,23004013,23004014,23005011,23005012,23005013,23005014,23006011,23006012,23006013
*NSET,NSET=NS_M5_7
22003021,22003022,22003023,22004020,22004021,22004022,22004023,22005020,22005021,22005022,22005023,22006021,22006022,22006023,23003021,23003022
23003023,23004020,23004021,23004022,23004023,23005020,23005021,23005022,23005023,23006021,23006022,23006023
*NSET,NSET=NS_M5_8
22010027,22010028,22010029,22010030,22011027,22011028,22011029,22011030,22012027,22012028,22012029,22012030,22013028,22013029,23010027,23010028
23010029,23010030,23011027,23011028,23011029,23011030,23012027,23012028,23012029,23012030,23013028,23013029
*NSET,NSET=NS_M6_1
9028030,9028031,9028032,9029029,9029030,9029031,9029032,9029033,9030029,9030030,9030031,9030032,9030033,9031029,9031030,9031031
9031032,9031033,9032030,9032031,9032032,10028030,10028031,10028032,10029029,10029030,10029031,10029032,10029033,10030029,10030030,10030031
10030032,10030033,10031029,10031030,10031031,10031032,10031033,10032030,10032031,10032032
*NSET,NSET=NS_M6_2
9000030,9000031,9000032,9001029,9001030,9001031,9001032,9001033,9002029,9002030,9002031,9002032,9002033,9003029,9003030,9003031
9003032,9003033,9004030,9004031,9004032,10000030,10000031,10000032,10001029,10001030,10001031,10001032,10001033,10002029,10002030,10002031
10002032,10002033,10003029,10003030,10003031,10003032,10003033,10004030,10004031,10004032
*NSET,NSET=NS_M6_3
9028002,9028003,9028004,9029001,9029002,9029003,9029004,9029005,9030001,9030002,9030003,9030004,9030005,9031001,9031002,9031003
9031004,9031005,9032002,9032003,9032004,10028002,10028003,10028004,10029001,10029002,10029003,10029004,10029005,10030001,10030002,10030003
10030004,10030005,10031001,10031002,10031003,10031004,10031005,10032002,10032003,10032004
*NSET,NSET=NS_M6_4
9000002,9000003,9000004,9001001,9001002,9001003,9001004,9001005,9002001,9002002,9002003,9002004,9002005,9003001,9003002,9003003
9003004,9003005,9004002,9004003,9004004,10000002,10000003,10000004,10001001,10001002,10001003,10001004,10001005,10002001,10002002,10002003
10002004,10002005,10003001,10003002,10003003,10003004,10003005,10004002,10004003,10004004
*MATERIAL,NAME=AL6061_T6_CAND
*ELASTIC
68300.0,0.33
*DENSITY
2.700e-09
*SOLID SECTION,ELSET=EBRIDGE,MATERIAL=AL6061_T6_CAND
*SOLID SECTION,ELSET=ESTAGEB,MATERIAL=AL6061_T6_CAND
*SOLID SECTION,ELSET=ESTAGEA,MATERIAL=AL6061_T6_CAND
*BOUNDARY
NFIXED,ENCASTRE
** joint couplings (bolt-disk rigid zones) -- identical to solved FEA-1
*SURFACE,TYPE=NODE,NAME=S_NS_ARM_SPIDER
NS_ARM_SPIDER,
*SURFACE,TYPE=NODE,NAME=S_NS_M5_1
NS_M5_1,
*SURFACE,TYPE=NODE,NAME=S_NS_M5_2
NS_M5_2,
*SURFACE,TYPE=NODE,NAME=S_NS_M5_3
NS_M5_3,
*SURFACE,TYPE=NODE,NAME=S_NS_M5_4
NS_M5_4,
*SURFACE,TYPE=NODE,NAME=S_NS_M5_5
NS_M5_5,
*SURFACE,TYPE=NODE,NAME=S_NS_M5_6
NS_M5_6,
*SURFACE,TYPE=NODE,NAME=S_NS_M5_7
NS_M5_7,
*SURFACE,TYPE=NODE,NAME=S_NS_M5_8
NS_M5_8,
*SURFACE,TYPE=NODE,NAME=S_NS_M6_1
NS_M6_1,
*SURFACE,TYPE=NODE,NAME=S_NS_M6_2
NS_M6_2,
*SURFACE,TYPE=NODE,NAME=S_NS_M6_3
NS_M6_3,
*SURFACE,TYPE=NODE,NAME=S_NS_M6_4
NS_M6_4,
*COUPLING,CONSTRAINT NAME=M6_1,REF NODE=99000100,SURFACE=S_NS_M6_1
*KINEMATIC
1,6
*COUPLING,CONSTRAINT NAME=M6_2,REF NODE=99000101,SURFACE=S_NS_M6_2
*KINEMATIC
1,6
*COUPLING,CONSTRAINT NAME=M6_3,REF NODE=99000102,SURFACE=S_NS_M6_3
*KINEMATIC
1,6
*COUPLING,CONSTRAINT NAME=M6_4,REF NODE=99000103,SURFACE=S_NS_M6_4
*KINEMATIC
1,6
*COUPLING,CONSTRAINT NAME=M5_1,REF NODE=99000200,SURFACE=S_NS_M5_1
*KINEMATIC
1,6
*COUPLING,CONSTRAINT NAME=M5_2,REF NODE=99000201,SURFACE=S_NS_M5_2
*KINEMATIC
1,6
*COUPLING,CONSTRAINT NAME=M5_3,REF NODE=99000202,SURFACE=S_NS_M5_3
*KINEMATIC
1,6
*COUPLING,CONSTRAINT NAME=M5_4,REF NODE=99000203,SURFACE=S_NS_M5_4
*KINEMATIC
1,6
*COUPLING,CONSTRAINT NAME=M5_5,REF NODE=99000204,SURFACE=S_NS_M5_5
*KINEMATIC
1,6
*COUPLING,CONSTRAINT NAME=M5_6,REF NODE=99000205,SURFACE=S_NS_M5_6
*KINEMATIC
1,6
*COUPLING,CONSTRAINT NAME=M5_7,REF NODE=99000206,SURFACE=S_NS_M5_7
*KINEMATIC
1,6
*COUPLING,CONSTRAINT NAME=M5_8,REF NODE=99000207,SURFACE=S_NS_M5_8
*KINEMATIC
1,6
*COUPLING,CONSTRAINT NAME=ARM_SPIDER,REF NODE=99000000,SURFACE=S_NS_ARM_SPIDER
*KINEMATIC
1,6
*STEP,NAME=QS_STEP,NLGEOM=NO
*STATIC
1.0,1.0
*CLOAD
99000000,2,13.552659999999999
99000000,6,19073.267958599998
*NODE PRINT,NSET=NFIXED
RF
*NODE PRINT,NSET=NRP
U
*EL PRINT,ELSET=EPROBES
S
*ENERGY PRINT
*OUTPUT,FIELD,VARIABLE=PRESELECT
*OUTPUT,HISTORY
*ENERGY OUTPUT
*END STEP
