*HEADING
FEA1B_M3R_INTERFACE  case=CAPTURE_22KG_QS  mesh=Z4_ZR_N20K4  eltype=C3D8I  material=AL6061_T6_CAND
M7 WP7 FEA_OPERATIONAL element-formulation closure (ODR-11/ODR-12).
Units: N, mm, MPa, tonne. Linear static. DESIGN_INDICATIVE results only.
** ELEMENT_FORMULATION: C3D8I -- incompatible-mode 8-node hex, 2x2x2 full integration, no hourglass modes, incompatible modes relieve shear locking in bending-dominated thin features (PRIMARY choice)
** MESH_SERIES: Z_REFINEMENT_FIXED_INPLANE  n_xy=20 (pitch 8 mm)  kz=4
** ASSUMPTION: LINEAR_STATIC_SMALL_DISPLACEMENT (NLGEOM off; loads are milli-g level)
** ASSUMPTION: BUS_SIDE_ENCASTRE_ASSUMPTION: BC-BUS-001 bus stiffness authority is HOLD; z=0 face fully clamped = stiff-boundary design bound
** ASSUMPTION: BOLT_DISK_KINEMATIC_COUPLING_ASSUMPTION: M6/M5/M4 joints modelled as rigid coupling disks (r_b=12/10/10 mm, auto-grow to >=1 node/face, recorded); no preload, no friction, no slip
** ASSUMPTION: ARM_BASE_RIGID_SPIDER_ASSUMPTION: B601 base flange stiffness >> 8 mm ring; single RP spider onto 4 as-built M4 disks; sensitivity covered by the 3-level mesh convergence series (CDR rigid_spider rule)
** ASSUMPTION: NO_CONTACT_NO_PRELOAD_NO_FRICTION: CDR joint mechanics HOLD; faces outside bolt disks untied (separation/interpenetration possible; Level-1 bound)
** ASSUMPTION: STAGE_B_IDEALIZED_ANNULAR_PLATE: pocket/recess not resolved; bore dia100 through bottom 2 layers; centre web r<50 modelled 4.0 mm (real 5.595)
** ASSUMPTION: STAGE_A_IDEALIZED_UNIFORM_RING: OD150/ID40 x 8.0 uniform; spigot, recess, counterbores not resolved
** ASSUMPTION: BRIDGE_CORNER_RADIUS_OMITTED: R4 corners modelled square; all boundaries stepped at element corners
** ASSUMPTION: SMALL_HOLES_NOT_CUT: dia6.6/5.5/4.6 holes represented by coupling disks, not voids (locally stiffer); hole-edge peak stress NOT qualified here
** ASSUMPTION: POISSON_ASSUMPTION: nu=0.33 for both Al candidates (not in M6 library)
** ASSUMPTION: MATERIALS_CANDIDATE: 6061-T6 / 7075-T651 elastic constants from M6 WP4 library, classification PROTOTYPE_CANDIDATE; margins DESIGN_INDICATIVE only
** ASSUMPTION: DYNAMIC_FACTOR_ASSUMPTION: quasi-static equivalence F_eq=DAF*J/dt, DAF=2.0, dt=0.1 s; both declared assumptions, research-bound
** ASSUMPTION: LOAD_DIRECTION_ASSUMPTION: transverse +y force plus bending moment about +z; worst-axis alignment declared (near-axisymmetric stack)
** ASSUMPTION: MEMORY_GATE_MESH_ADAPTATION: seeds 16/10/8 mm replace draft 4/2/1 mm; <=4000 C3D8R; 6.7 mm ligament NOT resolved with 3 elements; convergence assessed on global maxima trend only
** ASSUMPTION: ARM_LOADS_BOUNDED_BY_ASSUMPTION: quintic peak accel from LC-010 trajectory x r_eff=0.7 m; e-stop = 2x maneuver; arm inertia tensor not reduced (arm cases shown to be non-governing)
** ASSUMPTION: ELEMENT_FORMULATION_CHANGE: C3D8R (1 IP + hourglass control) replaced by C3D8I (2x2x2 full integration + incompatible modes). No hourglass modes exist in C3D8I, so ALLAE must collapse to ~0; this is the acceptance test
** ASSUMPTION: IP_COUNT_COMPARABILITY: C3D8R reports 1 centroidal integration point, so its 'peak von Mises' is already an element-average; C3D8I reports 8 Gauss points, whose peak is systematically above the element average in a bending field. C3D8R peak must therefore be compared against the C3D8I ELEMENT-AVERAGED value, not against the C3D8I peak IP value
** ASSUMPTION: THROUGH_THICKNESS_REFINEMENT: kz multiplies the layer count of every z segment (bridge 2kz, stage B annulus 2kz, stage B web 1kz, stage A 2kz); kz=1 reproduces the FEA-1 plane list node-for-node
** ASSUMPTION: STAIRCASE_BOUNDARY_SINGULARITY: the dia-40 / dia-100 / OD-150 circular boundaries are stepped at element corners, so each in-plane refinement level presents a DIFFERENT discrete re-entrant-corner set. Peak stress at those steps cannot converge by construction and is excluded from the region-stress convergence metric (fixed 10 mm geometric band)
** ASSUMPTION: POINT_COUPLING_SINGULARITY: the arm-base RP kinematic coupling and the per-bolt kinematic couplings are point/patch constraints; peak stress in their immediate neighbourhood rises monotonically with refinement as a constraint singularity and is reported separately (ODR-11 singularity rule), with a fixed 15 mm exclusion radius for the far-field metric
** Case load: F_y=7.21244 N, M_z=1846.1363212000001 N*mm (F=DAF*J/dt; M=F*L_grasp+DAF*C/dt (envelope row CAP22_030))
**
*NODE
1000001,-80.000000,-80.000000,0.000000
1000002,-72.000000,-80.000000,0.000000
1000003,-64.000000,-80.000000,0.000000
1000004,-56.000000,-80.000000,0.000000
1000005,-48.000000,-80.000000,0.000000
1000006,-40.000000,-80.000000,0.000000
1000007,-32.000000,-80.000000,0.000000
1000008,-24.000000,-80.000000,0.000000
1000009,-16.000000,-80.000000,0.000000
1000010,-8.000000,-80.000000,0.000000
1000011,0.000000,-80.000000,0.000000
1000012,8.000000,-80.000000,0.000000
1000013,16.000000,-80.000000,0.000000
1000014,24.000000,-80.000000,0.000000
1000015,32.000000,-80.000000,0.000000
1000016,40.000000,-80.000000,0.000000
1000017,48.000000,-80.000000,0.000000
1000018,56.000000,-80.000000,0.000000
1000019,64.000000,-80.000000,0.000000
1000020,72.000000,-80.000000,0.000000
** ... 10842 like lines cut
*ELEMENT,TYPE=C3D8I,ELSET=EALL
1,1000001,1000002,1001002,1001001,2000001,2000002,2001002,2001001
2,1000002,1000003,1001003,1001002,2000002,2000003,2001003,2001002
3,1000003,1000004,1001004,1001003,2000003,2000004,2001004,2001003
4,1000004,1000005,1001005,1001004,2000004,2000005,2001005,2001004
5,1000005,1000006,1001006,1001005,2000005,2000006,2001006,2001005
6,1000006,1000007,1001007,1001006,2000006,2000007,2001007,2001006
7,1000007,1000008,1001008,1001007,2000007,2000008,2001008,2001007
8,1000008,1000009,1001009,1001008,2000008,2000009,2001009,2001008
9,1000009,1000010,1001010,1001009,2000009,2000010,2001010,2001009
10,1000010,1000011,1001011,1001010,2000010,2000011,2001011,2001010
11,1000011,1000012,1001012,1001011,2000011,2000012,2001012,2001011
12,1000012,1000013,1001013,1001012,2000012,2000013,2001013,2001012
13,1000013,1000014,1001014,1001013,2000013,2000014,2001014,2001013
14,1000014,1000015,1001015,1001014,2000014,2000015,2001015,2001014
15,1000015,1000016,1001016,1001015,2000015,2000016,2001016,2001015
16,1000016,1000017,1001017,1001016,2000016,2000017,2001017,2001016
17,1000017,1000018,1001018,1001017,2000017,2000018,2001018,2001017
18,1000018,1000019,1001019,1001018,2000018,2000019,2001019,2001018
19,1000019,1000020,1001020,1001019,2000019,2000020,2001020,2001019
20,1000020,1000021,1001021,1001020,2000020,2000021,2001021,2001020
** ... 8204 like lines cut
*ELSET,ELSET=EBRIDGE
1,2,3,4,5,6,7,8,9,10,11,12,13,14,15,16
17,18,19,20,21,22,23,24,25,26,27,28,29,30,31,32
33,34,35,36,37,38,39,40,41,42,43,44,45,46,47,48
49,50,51,52,53,54,55,56,57,58,59,60,61,62,63,64
65,66,67,68,69,70,71,72,73,74,75,76,77,78,79,80
81,82,83,84,85,86,87,88,89,90,91,92,93,94,95,96
97,98,99,100,101,102,103,104,105,106,107,108,109,110,111,112
113,114,115,116,117,118,119,120,121,122,123,124,125,126,127,128
129,130,131,132,133,134,135,136,137,138,139,140,141,142,143,144
145,146,147,148,149,150,151,152,153,154,155,156,157,158,159,160
161,162,163,164,165,166,167,168,169,170,171,172,173,174,175,176
177,178,179,180,181,182,183,184,185,186,187,188,189,190,191,192
193,194,195,196,197,198,199,200,201,202,203,204,205,206,207,208
209,210,211,212,213,214,215,216,217,218,219,220,221,222,223,224
225,226,227,228,229,230,231,232,233,234,235,236,237,238,239,240
241,242,243,244,245,246,247,248,249,250,251,252,253,254,255,256
257,258,259,260,261,262,263,264,265,266,267,268,269,270,271,272
273,274,275,276,277,278,279,280,281,282,283,284,285,286,287,288
289,290,291,292,293,294,295,296,297,298,299,300,301,302,303,304
305,306,307,308,309,310,311,312,313,314,315,316,317,318,319,320
** ... 164 like lines cut
*ELSET,ELSET=ESTAGEB
2945,2946,2947,2948,2949,2950,2951,2952,2953,2954,2955,2956,2957,2958,2959,2960
2961,2962,2963,2964,2965,2966,2967,2968,2969,2970,2971,2972,2973,2974,2975,2976
2977,2978,2979,2980,2981,2982,2983,2984,2985,2986,2987,2988,2989,2990,2991,2992
2993,2994,2995,2996,2997,2998,2999,3000,3001,3002,3003,3004,3005,3006,3007,3008
3009,3010,3011,3012,3013,3014,3015,3016,3017,3018,3019,3020,3021,3022,3023,3024
3025,3026,3027,3028,3029,3030,3031,3032,3033,3034,3035,3036,3037,3038,3039,3040
3041,3042,3043,3044,3045,3046,3047,3048,3049,3050,3051,3052,3053,3054,3055,3056
3057,3058,3059,3060,3061,3062,3063,3064,3065,3066,3067,3068,3069,3070,3071,3072
3073,3074,3075,3076,3077,3078,3079,3080,3081,3082,3083,3084,3085,3086,3087,3088
3089,3090,3091,3092,3093,3094,3095,3096,3097,3098,3099,3100,3101,3102,3103,3104
3105,3106,3107,3108,3109,3110,3111,3112,3113,3114,3115,3116,3117,3118,3119,3120
3121,3122,3123,3124,3125,3126,3127,3128,3129,3130,3131,3132,3133,3134,3135,3136
3137,3138,3139,3140,3141,3142,3143,3144,3145,3146,3147,3148,3149,3150,3151,3152
3153,3154,3155,3156,3157,3158,3159,3160,3161,3162,3163,3164,3165,3166,3167,3168
3169,3170,3171,3172,3173,3174,3175,3176,3177,3178,3179,3180,3181,3182,3183,3184
3185,3186,3187,3188,3189,3190,3191,3192,3193,3194,3195,3196,3197,3198,3199,3200
3201,3202,3203,3204,3205,3206,3207,3208,3209,3210,3211,3212,3213,3214,3215,3216
3217,3218,3219,3220,3221,3222,3223,3224,3225,3226,3227,3228,3229,3230,3231,3232
3233,3234,3235,3236,3237,3238,3239,3240,3241,3242,3243,3244,3245,3246,3247,3248
3249,3250,3251,3252,3253,3254,3255,3256,3257,3258,3259,3260,3261,3262,3263,3264
** ... 206 like lines cut
*ELSET,ELSET=ESTAGEA
6561,6562,6563,6564,6565,6566,6567,6568,6569,6570,6571,6572,6573,6574,6575,6576
6577,6578,6579,6580,6581,6582,6583,6584,6585,6586,6587,6588,6589,6590,6591,6592
6593,6594,6595,6596,6597,6598,6599,6600,6601,6602,6603,6604,6605,6606,6607,6608
6609,6610,6611,6612,6613,6614,6615,6616,6617,6618,6619,6620,6621,6622,6623,6624
6625,6626,6627,6628,6629,6630,6631,6632,6633,6634,6635,6636,6637,6638,6639,6640
6641,6642,6643,6644,6645,6646,6647,6648,6649,6650,6651,6652,6653,6654,6655,6656
6657,6658,6659,6660,6661,6662,6663,6664,6665,6666,6667,6668,6669,6670,6671,6672
6673,6674,6675,6676,6677,6678,6679,6680,6681,6682,6683,6684,6685,6686,6687,6688
6689,6690,6691,6692,6693,6694,6695,6696,6697,6698,6699,6700,6701,6702,6703,6704
6705,6706,6707,6708,6709,6710,6711,6712,6713,6714,6715,6716,6717,6718,6719,6720
6721,6722,6723,6724,6725,6726,6727,6728,6729,6730,6731,6732,6733,6734,6735,6736
6737,6738,6739,6740,6741,6742,6743,6744,6745,6746,6747,6748,6749,6750,6751,6752
6753,6754,6755,6756,6757,6758,6759,6760,6761,6762,6763,6764,6765,6766,6767,6768
6769,6770,6771,6772,6773,6774,6775,6776,6777,6778,6779,6780,6781,6782,6783,6784
6785,6786,6787,6788,6789,6790,6791,6792,6793,6794,6795,6796,6797,6798,6799,6800
6801,6802,6803,6804,6805,6806,6807,6808,6809,6810,6811,6812,6813,6814,6815,6816
6817,6818,6819,6820,6821,6822,6823,6824,6825,6826,6827,6828,6829,6830,6831,6832
6833,6834,6835,6836,6837,6838,6839,6840,6841,6842,6843,6844,6845,6846,6847,6848
6849,6850,6851,6852,6853,6854,6855,6856,6857,6858,6859,6860,6861,6862,6863,6864
6865,6866,6867,6868,6869,6870,6871,6872,6873,6874,6875,6876,6877,6878,6879,6880
** ... 84 like lines cut
*ELSET,ELSET=EPROBES
2902,5255,8195,1282
*NSET,NSET=NFIXED
1000001,1000002,1000003,1000004,1000005,1000006,1000007,1000008,1000009,1000010,1000011,1000012,1000013,1000014,1000015,1000016
1000017,1000018,1000019,1000020,1000021,1001001,1001002,1001003,1001004,1001005,1001006,1001007,1001008,1001009,1001010,1001011
1001012,1001013,1001014,1001015,1001016,1001017,1001018,1001019,1001020,1001021,1002001,1002002,1002003,1002004,1002005,1002006
1002007,1002008,1002009,1002010,1002011,1002012,1002013,1002014,1002015,1002016,1002017,1002018,1002019,1002020,1002021,1003001
1003002,1003003,1003004,1003005,1003006,1003007,1003008,1003009,1003010,1003011,1003012,1003013,1003014,1003015,1003016,1003017
1003018,1003019,1003020,1003021,1004001,1004002,1004003,1004004,1004005,1004006,1004007,1004008,1004009,1004010,1004011,1004012
1004013,1004014,1004015,1004016,1004017,1004018,1004019,1004020,1004021,1005001,1005002,1005003,1005004,1005005,1005006,1005007
1005008,1005009,1005010,1005011,1005012,1005013,1005014,1005015,1005016,1005017,1005018,1005019,1005020,1005021,1006001,1006002
1006003,1006004,1006005,1006006,1006007,1006008,1006009,1006010,1006011,1006012,1006013,1006014,1006015,1006016,1006017,1006018
1006019,1006020,1006021,1007001,1007002,1007003,1007004,1007005,1007006,1007007,1007008,1007009,1007010,1007011,1007012,1007013
1007014,1007015,1007016,1007017,1007018,1007019,1007020,1007021,1008001,1008002,1008003,1008004,1008005,1008006,1008007,1008008
1008009,1008013,1008014,1008015,1008016,1008017,1008018,1008019,1008020,1008021,1009001,1009002,1009003,1009004,1009005,1009006
1009007,1009008,1009014,1009015,1009016,1009017,1009018,1009019,1009020,1009021,1010001,1010002,1010003,1010004,1010005,1010006
1010007,1010008,1010014,1010015,1010016,1010017,1010018,1010019,1010020,1010021,1011001,1011002,1011003,1011004,1011005,1011006
1011007,1011008,1011014,1011015,1011016,1011017,1011018,1011019,1011020,1011021,1012001,1012002,1012003,1012004,1012005,1012006
1012007,1012008,1012009,1012013,1012014,1012015,1012016,1012017,1012018,1012019,1012020,1012021,1013001,1013002,1013003,1013004
1013005,1013006,1013007,1013008,1013009,1013010,1013011,1013012,1013013,1013014,1013015,1013016,1013017,1013018,1013019,1013020
1013021,1014001,1014002,1014003,1014004,1014005,1014006,1014007,1014008,1014009,1014010,1014011,1014012,1014013,1014014,1014015
1014016,1014017,1014018,1014019,1014020,1014021,1015001,1015002,1015003,1015004,1015005,1015006,1015007,1015008,1015009,1015010
1015011,1015012,1015013,1015014,1015015,1015016,1015017,1015018,1015019,1015020,1015021,1016001,1016002,1016003,1016004,1016005
** ... 7 like lines cut
*NSET,NSET=NRP
99000000
*NSET,NSET=NS_ARM_SPIDER
31004009,31004010,31005008,31005009,31005010,31007016,31008016,31008017,31009016,31009017,31011005,31011006,31012005,31012006,31013006,31015012
31015013,31015014,31016012,31016013
*NSET,NSET=NS_M5_1
22012018,22013017,22013018,22013019,22014018,23012018,23013017,23013018,23013019,23014018
*NSET,NSET=NS_M5_2
22016014,22017013,22017014,22017015,22018014,23016014,23017013,23017014,23017015,23018014
*NSET,NSET=NS_M5_3
22016008,22017007,22017008,22017009,22018008,23016008,23017007,23017008,23017009,23018008
*NSET,NSET=NS_M5_4
22012004,22013003,22013004,22013005,22014004,23012004,23013003,23013004,23013005,23014004
*NSET,NSET=NS_M5_5
22006004,22007003,22007004,22007005,22008004,23006004,23007003,23007004,23007005,23008004
*NSET,NSET=NS_M5_6
22002008,22003007,22003008,22003009,22004008,23002008,23003007,23003008,23003009,23004008
*NSET,NSET=NS_M5_7
22002014,22003013,22003014,22003015,22004014,23002014,23003013,23003014,23003015,23004014
*NSET,NSET=NS_M5_8
22006018,22007017,22007018,22007019,22008018,23006018,23007017,23007018,23007019,23008018
*NSET,NSET=NS_M6_1
9018019,9018020,9018021,9019019,9019020,9019021,9020019,9020020,10018019,10018020,10018021,10019019,10019020,10019021,10020019,10020020
*NSET,NSET=NS_M6_2
9000019,9000020,9001019,9001020,9001021,9002019,9002020,9002021,10000019,10000020,10001019,10001020,10001021,10002019,10002020,10002021
*NSET,NSET=NS_M6_3
9018001,9018002,9018003,9019001,9019002,9019003,9020002,9020003,10018001,10018002,10018003,10019001,10019002,10019003,10020002,10020003
*NSET,NSET=NS_M6_4
9000002,9000003,9001001,9001002,9001003,9002001,9002002,9002003,10000002,10000003,10001001,10001002,10001003,10002001,10002002,10002003
*MATERIAL,NAME=AL6061_T6_CAND
*ELASTIC
68300.0,0.33
*DENSITY
2.700e-09
*SOLID SECTION,ELSET=EBRIDGE,MATERIAL=AL6061_T6_CAND
*SOLID SECTION,ELSET=ESTAGEB,MATERIAL=AL6061_T6_CAND
*SOLID SECTION,ELSET=ESTAGEA,MATERIAL=AL6061_T6_CAND
*BOUNDARY
NFIXED,ENCASTRE
** joint couplings (bolt-disk rigid zones) -- identical to solved FEA-1
*SURFACE,TYPE=NODE,NAME=S_NS_ARM_SPIDER
NS_ARM_SPIDER,
*SURFACE,TYPE=NODE,NAME=S_NS_M5_1
NS_M5_1,
*SURFACE,TYPE=NODE,NAME=S_NS_M5_2
NS_M5_2,
*SURFACE,TYPE=NODE,NAME=S_NS_M5_3
NS_M5_3,
*SURFACE,TYPE=NODE,NAME=S_NS_M5_4
NS_M5_4,
*SURFACE,TYPE=NODE,NAME=S_NS_M5_5
NS_M5_5,
*SURFACE,TYPE=NODE,NAME=S_NS_M5_6
NS_M5_6,
*SURFACE,TYPE=NODE,NAME=S_NS_M5_7
NS_M5_7,
*SURFACE,TYPE=NODE,NAME=S_NS_M5_8
NS_M5_8,
*SURFACE,TYPE=NODE,NAME=S_NS_M6_1
NS_M6_1,
*SURFACE,TYPE=NODE,NAME=S_NS_M6_2
NS_M6_2,
*SURFACE,TYPE=NODE,NAME=S_NS_M6_3
NS_M6_3,
*SURFACE,TYPE=NODE,NAME=S_NS_M6_4
NS_M6_4,
*COUPLING,CONSTRAINT NAME=M6_1,REF NODE=99000100,SURFACE=S_NS_M6_1
*KINEMATIC
1,6
*COUPLING,CONSTRAINT NAME=M6_2,REF NODE=99000101,SURFACE=S_NS_M6_2
*KINEMATIC
1,6
*COUPLING,CONSTRAINT NAME=M6_3,REF NODE=99000102,SURFACE=S_NS_M6_3
*KINEMATIC
1,6
*COUPLING,CONSTRAINT NAME=M6_4,REF NODE=99000103,SURFACE=S_NS_M6_4
*KINEMATIC
1,6
*COUPLING,CONSTRAINT NAME=M5_1,REF NODE=99000200,SURFACE=S_NS_M5_1
*KINEMATIC
1,6
*COUPLING,CONSTRAINT NAME=M5_2,REF NODE=99000201,SURFACE=S_NS_M5_2
*KINEMATIC
1,6
*COUPLING,CONSTRAINT NAME=M5_3,REF NODE=99000202,SURFACE=S_NS_M5_3
*KINEMATIC
1,6
*COUPLING,CONSTRAINT NAME=M5_4,REF NODE=99000203,SURFACE=S_NS_M5_4
*KINEMATIC
1,6
*COUPLING,CONSTRAINT NAME=M5_5,REF NODE=99000204,SURFACE=S_NS_M5_5
*KINEMATIC
1,6
*COUPLING,CONSTRAINT NAME=M5_6,REF NODE=99000205,SURFACE=S_NS_M5_6
*KINEMATIC
1,6
*COUPLING,CONSTRAINT NAME=M5_7,REF NODE=99000206,SURFACE=S_NS_M5_7
*KINEMATIC
1,6
*COUPLING,CONSTRAINT NAME=M5_8,REF NODE=99000207,SURFACE=S_NS_M5_8
*KINEMATIC
1,6
*COUPLING,CONSTRAINT NAME=ARM_SPIDER,REF NODE=99000000,SURFACE=S_NS_ARM_SPIDER
*KINEMATIC
1,6
*STEP,NAME=QS_STEP,NLGEOM=NO
*STATIC
1.0,1.0
*CLOAD
99000000,2,7.21244
99000000,6,1846.1363212000001
*NODE PRINT,NSET=NFIXED
RF
*NODE PRINT,NSET=NRP
U
*EL PRINT,ELSET=EPROBES
S
*ENERGY PRINT
*OUTPUT,FIELD,VARIABLE=PRESELECT
*OUTPUT,HISTORY
*ENERGY OUTPUT
*END STEP
