*HEADING
FEA1_M3R_INTERFACE  case=CAPTURE_150KG_QS  mesh=MEDIUM  material=AL6061_T6_CAND
M7 WP7 FEA_OPERATIONAL -- operational on-orbit quasi-static screen.
Units: N, mm, MPa, tonne. Linear static. DESIGN_INDICATIVE results only.
** ASSUMPTION: LINEAR_STATIC_SMALL_DISPLACEMENT (NLGEOM off; loads are milli-g level)
** ASSUMPTION: BUS_SIDE_ENCASTRE_ASSUMPTION: BC-BUS-001 bus stiffness authority is HOLD; z=0 face fully clamped = stiff-boundary design bound
** ASSUMPTION: BOLT_DISK_KINEMATIC_COUPLING_ASSUMPTION: M6/M5/M4 joints modelled as rigid coupling disks (r_b=12/10/10 mm, auto-grow to >=1 node/face, recorded); no preload, no friction, no slip
** ASSUMPTION: ARM_BASE_RIGID_SPIDER_ASSUMPTION: B601 base flange stiffness >> 8 mm ring; single RP spider onto 4 as-built M4 disks; sensitivity covered by the 3-level mesh convergence series (CDR rigid_spider rule)
** ASSUMPTION: NO_CONTACT_NO_PRELOAD_NO_FRICTION: CDR joint mechanics HOLD; faces outside bolt disks untied (separation/interpenetration possible; Level-1 bound)
** ASSUMPTION: STAGE_B_IDEALIZED_ANNULAR_PLATE: pocket/recess not resolved; bore dia100 through bottom 2 layers; centre web r<50 modelled 4.0 mm (real 5.595)
** ASSUMPTION: STAGE_A_IDEALIZED_UNIFORM_RING: OD150/ID40 x 8.0 uniform; spigot, recess, counterbores not resolved
** ASSUMPTION: BRIDGE_CORNER_RADIUS_OMITTED: R4 corners modelled square; all boundaries stepped at element corners
** ASSUMPTION: SMALL_HOLES_NOT_CUT: dia6.6/5.5/4.6 holes represented by coupling disks, not voids (locally stiffer); hole-edge peak stress NOT qualified here
** ASSUMPTION: POISSON_ASSUMPTION: nu=0.33 for both Al candidates (not in M6 library)
** ASSUMPTION: MATERIALS_CANDIDATE: 6061-T6 / 7075-T651 elastic constants from M6 WP4 library, classification PROTOTYPE_CANDIDATE; margins DESIGN_INDICATIVE only
** ASSUMPTION: DYNAMIC_FACTOR_ASSUMPTION: quasi-static equivalence F_eq=DAF*J/dt, DAF=2.0, dt=0.1 s; both declared assumptions, research-bound
** ASSUMPTION: LOAD_DIRECTION_ASSUMPTION: transverse +y force plus bending moment about +z; worst-axis alignment declared (near-axisymmetric stack)
** ASSUMPTION: MEMORY_GATE_MESH_ADAPTATION: seeds 16/10/8 mm replace draft 4/2/1 mm; <=4000 C3D8R; 6.7 mm ligament NOT resolved with 3 elements; convergence assessed on global maxima trend only
** ASSUMPTION: ARM_LOADS_BOUNDED_BY_ASSUMPTION: quintic peak accel from LC-010 trajectory x r_eff=0.7 m; e-stop = 2x maneuver; arm inertia tensor not reduced (arm cases shown to be non-governing)
** Case load: F_y=13.5527 N, M_z=19073.3 N*mm (F=DAF*J/dt; M=F*L_grasp+DAF*C/dt (envelope row CAP150_030))
**
*NODE
1,-80.000000,-80.000000,0.000000
2,-70.000000,-80.000000,0.000000
3,-60.000000,-80.000000,0.000000
4,-50.000000,-80.000000,0.000000
5,-40.000000,-80.000000,0.000000
6,-30.000000,-80.000000,0.000000
7,-20.000000,-80.000000,0.000000
8,-10.000000,-80.000000,0.000000
9,0.000000,-80.000000,0.000000
10,10.000000,-80.000000,0.000000
11,20.000000,-80.000000,0.000000
12,30.000000,-80.000000,0.000000
13,40.000000,-80.000000,0.000000
14,50.000000,-80.000000,0.000000
15,60.000000,-80.000000,0.000000
16,70.000000,-80.000000,0.000000
17,80.000000,-80.000000,0.000000
1001,-80.000000,-70.000000,0.000000
1002,-70.000000,-70.000000,0.000000
1003,-60.000000,-70.000000,0.000000
** ... 2355 like lines cut
*ELEMENT,TYPE=C3D8R,ELSET=EALL
1,1,2,1002,1001,100001,100002,101002,101001
2,2,3,1003,1002,100002,100003,101003,101002
3,3,4,1004,1003,100003,100004,101004,101003
4,4,5,1005,1004,100004,100005,101005,101004
5,5,6,1006,1005,100005,100006,101006,101005
6,6,7,1007,1006,100006,100007,101007,101006
7,7,8,1008,1007,100007,100008,101008,101007
8,8,9,1009,1008,100008,100009,101009,101008
9,9,10,1010,1009,100009,100010,101010,101009
10,10,11,1011,1010,100010,100011,101011,101010
11,11,12,1012,1011,100011,100012,101012,101011
12,12,13,1013,1012,100012,100013,101013,101012
13,13,14,1014,1013,100013,100014,101014,101013
14,14,15,1015,1014,100014,100015,101015,101014
15,15,16,1016,1015,100015,100016,101016,101015
16,16,17,1017,1016,100016,100017,101017,101016
17,1001,1002,2002,2001,101001,101002,102002,102001
18,1002,1003,2003,2002,101002,101003,102003,102002
19,1003,1004,2004,2003,101003,101004,102004,102003
20,1004,1005,2005,2004,101004,101005,102005,102004
** ... 1316 like lines cut
*ELSET,ELSET=EBRIDGE
1,2,3,4,5,6,7,8,9,10,11,12,13,14,15,16
17,18,19,20,21,22,23,24,25,26,27,28,29,30,31,32
33,34,35,36,37,38,39,40,41,42,43,44,45,46,47,48
49,50,51,52,53,54,55,56,57,58,59,60,61,62,63,64
65,66,67,68,69,70,71,72,73,74,75,76,77,78,79,80
81,82,83,84,85,86,87,88,89,90,91,92,93,94,95,96
97,98,99,100,101,102,103,104,105,106,107,108,109,110,111,112
113,114,115,116,117,118,119,120,121,122,123,124,125,126,127,128
129,130,131,132,133,134,135,136,137,138,139,140,141,142,143,144
145,146,147,148,149,150,151,152,153,154,155,156,157,158,159,160
161,162,163,164,165,166,167,168,169,170,171,172,173,174,175,176
177,178,179,180,181,182,183,184,185,186,187,188,189,190,191,192
193,194,195,196,197,198,199,200,201,202,203,204,205,206,207,208
209,210,211,212,213,214,215,216,217,218,219,220,221,222,223,224
225,226,227,228,229,230,231,232,233,234,235,236,237,238,239,240
241,242,243,244,245,246,247,248,249,250,251,252,253,254,255,256
257,258,259,260,261,262,263,264,265,266,267,268,269,270,271,272
273,274,275,276,277,278,279,280,281,282,283,284,285,286,287,288
289,290,291,292,293,294,295,296,297,298,299,300,301,302,303,304
305,306,307,308,309,310,311,312,313,314,315,316,317,318,319,320
** ... 10 like lines cut
*ELSET,ELSET=ESTAGEB
481,482,483,484,485,486,487,488,489,490,491,492,493,494,495,496
497,498,499,500,501,502,503,504,505,506,507,508,509,510,511,512
513,514,515,516,517,518,519,520,521,522,523,524,525,526,527,528
529,530,531,532,533,534,535,536,537,538,539,540,541,542,543,544
545,546,547,548,549,550,551,552,553,554,555,556,557,558,559,560
561,562,563,564,565,566,567,568,569,570,571,572,573,574,575,576
577,578,579,580,581,582,583,584,585,586,587,588,589,590,591,592
593,594,595,596,597,598,599,600,601,602,603,604,605,606,607,608
609,610,611,612,613,614,615,616,617,618,619,620,621,622,623,624
625,626,627,628,629,630,631,632,633,634,635,636,637,638,639,640
641,642,643,644,645,646,647,648,649,650,651,652,653,654,655,656
657,658,659,660,661,662,663,664,665,666,667,668,669,670,671,672
673,674,675,676,677,678,679,680,681,682,683,684,685,686,687,688
689,690,691,692,693,694,695,696,697,698,699,700,701,702,703,704
705,706,707,708,709,710,711,712,713,714,715,716,717,718,719,720
721,722,723,724,725,726,727,728,729,730,731,732,733,734,735,736
737,738,739,740,741,742,743,744,745,746,747,748,749,750,751,752
753,754,755,756,757,758,759,760,761,762,763,764,765,766,767,768
769,770,771,772,773,774,775,776,777,778,779,780,781,782,783,784
785,786,787,788,789,790,791,792,793,794,795,796,797,798,799,800
** ... 17 like lines cut
*ELSET,ELSET=ESTAGEA
1073,1074,1075,1076,1077,1078,1079,1080,1081,1082,1083,1084,1085,1086,1087,1088
1089,1090,1091,1092,1093,1094,1095,1096,1097,1098,1099,1100,1101,1102,1103,1104
1105,1106,1107,1108,1109,1110,1111,1112,1113,1114,1115,1116,1117,1118,1119,1120
1121,1122,1123,1124,1125,1126,1127,1128,1129,1130,1131,1132,1133,1134,1135,1136
1137,1138,1139,1140,1141,1142,1143,1144,1145,1146,1147,1148,1149,1150,1151,1152
1153,1154,1155,1156,1157,1158,1159,1160,1161,1162,1163,1164,1165,1166,1167,1168
1169,1170,1171,1172,1173,1174,1175,1176,1177,1178,1179,1180,1181,1182,1183,1184
1185,1186,1187,1188,1189,1190,1191,1192,1193,1194,1195,1196,1197,1198,1199,1200
1201,1202,1203,1204,1205,1206,1207,1208,1209,1210,1211,1212,1213,1214,1215,1216
1217,1218,1219,1220,1221,1222,1223,1224,1225,1226,1227,1228,1229,1230,1231,1232
1233,1234,1235,1236,1237,1238,1239,1240,1241,1242,1243,1244,1245,1246,1247,1248
1249,1250,1251,1252,1253,1254,1255,1256,1257,1258,1259,1260,1261,1262,1263,1264
1265,1266,1267,1268,1269,1270,1271,1272,1273,1274,1275,1276,1277,1278,1279,1280
1281,1282,1283,1284,1285,1286,1287,1288,1289,1290,1291,1292,1293,1294,1295,1296
1297,1298,1299,1300,1301,1302,1303,1304,1305,1306,1307,1308,1309,1310,1311,1312
1313,1314,1315,1316,1317,1318,1319,1320,1321,1322,1323,1324,1325,1326,1327,1328
1329,1330,1331,1332,1333,1334,1335,1336
*ELSET,ELSET=EPROBES
463,1004,1321,115
*NSET,NSET=NFIXED
1,2,3,4,5,6,7,8,9,10,11,12,13,14,15,16
17,1001,1002,1003,1004,1005,1006,1007,1008,1009,1010,1011,1012,1013,1014,1015
1016,1017,2001,2002,2003,2004,2005,2006,2007,2008,2009,2010,2011,2012,2013,2014
2015,2016,2017,3001,3002,3003,3004,3005,3006,3007,3008,3009,3010,3011,3012,3013
3014,3015,3016,3017,4001,4002,4003,4004,4005,4006,4007,4008,4009,4010,4011,4012
4013,4014,4015,4016,4017,5001,5002,5003,5004,5005,5006,5007,5008,5009,5010,5011
5012,5013,5014,5015,5016,5017,6001,6002,6003,6004,6005,6006,6007,6008,6009,6010
6011,6012,6013,6014,6015,6016,6017,7001,7002,7003,7004,7005,7006,7007,7011,7012
7013,7014,7015,7016,7017,8001,8002,8003,8004,8005,8006,8007,8011,8012,8013,8014
8015,8016,8017,9001,9002,9003,9004,9005,9006,9007,9011,9012,9013,9014,9015,9016
9017,10001,10002,10003,10004,10005,10006,10007,10008,10009,10010,10011,10012,10013,10014,10015
10016,10017,11001,11002,11003,11004,11005,11006,11007,11008,11009,11010,11011,11012,11013,11014
11015,11016,11017,12001,12002,12003,12004,12005,12006,12007,12008,12009,12010,12011,12012,12013
12014,12015,12016,12017,13001,13002,13003,13004,13005,13006,13007,13008,13009,13010,13011,13012
13013,13014,13015,13016,13017,14001,14002,14003,14004,14005,14006,14007,14008,14009,14010,14011
14012,14013,14014,14015,14016,14017,15001,15002,15003,15004,15005,15006,15007,15008,15009,15010
15011,15012,15013,15014,15015,15016,15017,16001,16002,16003,16004,16005,16006,16007,16008,16009
16010,16011,16012,16013,16014,16015,16016,16017
*NSET,NSET=NRP
900000
*NSET,NSET=NS_M6_1
214016,215015,215016,215017,216016,314016,315015,315016,315017,316016
*NSET,NSET=NS_M6_2
200016,201015,201016,201017,202016,300016,301015,301016,301017,302016
*NSET,NSET=NS_M6_3
214002,215001,215002,215003,216002,314002,315001,315002,315003,316002
*NSET,NSET=NS_M6_4
200002,201001,201002,201003,202002,300002,301001,301002,301003,302002
*NSET,NSET=NS_M5_1
610014,610015,611014,611015,710014,710015,711014,711015
*NSET,NSET=NS_M5_2
613011,613012,614011,614012,713011,713012,714011,714012
*NSET,NSET=NS_M5_3
613006,613007,614006,614007,713006,713007,714006,714007
*NSET,NSET=NS_M5_4
610003,610004,611003,611004,710003,710004,711003,711004
*NSET,NSET=NS_M5_5
605003,605004,606003,606004,705003,705004,706003,706004
*NSET,NSET=NS_M5_6
602006,602007,603006,603007,702006,702007,703006,703007
*NSET,NSET=NS_M5_7
602011,602012,603011,603012,702011,702012,703011,703012
*NSET,NSET=NS_M5_8
605014,605015,606014,606015,705014,705015,706014,706015
*NSET,NSET=NS_ARM_SPIDER
903007,903008,904007,904008,906013,906014,907013,907014,909004,909005,910004,910005,912010,912011,913010,913011
*MATERIAL,NAME=AL6061_T6_CAND
*ELASTIC
68300.0,0.33
*DENSITY
2.700e-09
*SOLID SECTION,ELSET=EBRIDGE,MATERIAL=AL6061_T6_CAND
*SOLID SECTION,ELSET=ESTAGEB,MATERIAL=AL6061_T6_CAND
*SOLID SECTION,ELSET=ESTAGEA,MATERIAL=AL6061_T6_CAND
*BOUNDARY
NFIXED,ENCASTRE
** joint couplings (bolt-disk rigid zones)
*SURFACE,TYPE=NODE,NAME=S_NS_M6_1
NS_M6_1,
*SURFACE,TYPE=NODE,NAME=S_NS_M6_2
NS_M6_2,
*SURFACE,TYPE=NODE,NAME=S_NS_M6_3
NS_M6_3,
*SURFACE,TYPE=NODE,NAME=S_NS_M6_4
NS_M6_4,
*SURFACE,TYPE=NODE,NAME=S_NS_M5_1
NS_M5_1,
*SURFACE,TYPE=NODE,NAME=S_NS_M5_2
NS_M5_2,
*SURFACE,TYPE=NODE,NAME=S_NS_M5_3
NS_M5_3,
*SURFACE,TYPE=NODE,NAME=S_NS_M5_4
NS_M5_4,
*SURFACE,TYPE=NODE,NAME=S_NS_M5_5
NS_M5_5,
*SURFACE,TYPE=NODE,NAME=S_NS_M5_6
NS_M5_6,
*SURFACE,TYPE=NODE,NAME=S_NS_M5_7
NS_M5_7,
*SURFACE,TYPE=NODE,NAME=S_NS_M5_8
NS_M5_8,
*SURFACE,TYPE=NODE,NAME=S_NS_ARM_SPIDER
NS_ARM_SPIDER,
*COUPLING,CONSTRAINT NAME=M6_1,REF NODE=900100,SURFACE=S_NS_M6_1
*KINEMATIC
1,6
*COUPLING,CONSTRAINT NAME=M6_2,REF NODE=900101,SURFACE=S_NS_M6_2
*KINEMATIC
1,6
*COUPLING,CONSTRAINT NAME=M6_3,REF NODE=900102,SURFACE=S_NS_M6_3
*KINEMATIC
1,6
*COUPLING,CONSTRAINT NAME=M6_4,REF NODE=900103,SURFACE=S_NS_M6_4
*KINEMATIC
1,6
*COUPLING,CONSTRAINT NAME=M5_1,REF NODE=900200,SURFACE=S_NS_M5_1
*KINEMATIC
1,6
*COUPLING,CONSTRAINT NAME=M5_2,REF NODE=900201,SURFACE=S_NS_M5_2
*KINEMATIC
1,6
*COUPLING,CONSTRAINT NAME=M5_3,REF NODE=900202,SURFACE=S_NS_M5_3
*KINEMATIC
1,6
*COUPLING,CONSTRAINT NAME=M5_4,REF NODE=900203,SURFACE=S_NS_M5_4
*KINEMATIC
1,6
*COUPLING,CONSTRAINT NAME=M5_5,REF NODE=900204,SURFACE=S_NS_M5_5
*KINEMATIC
1,6
*COUPLING,CONSTRAINT NAME=M5_6,REF NODE=900205,SURFACE=S_NS_M5_6
*KINEMATIC
1,6
*COUPLING,CONSTRAINT NAME=M5_7,REF NODE=900206,SURFACE=S_NS_M5_7
*KINEMATIC
1,6
*COUPLING,CONSTRAINT NAME=M5_8,REF NODE=900207,SURFACE=S_NS_M5_8
*KINEMATIC
1,6
*COUPLING,CONSTRAINT NAME=ARM_SPIDER,REF NODE=900000,SURFACE=S_NS_ARM_SPIDER
*KINEMATIC
1,6
*STEP,NAME=QS_STEP,NLGEOM=NO
*STATIC
1.0,1.0
*CLOAD
900000,2,13.5527
900000,6,19073.3
*NODE PRINT,NSET=NFIXED
RF
*NODE PRINT,NSET=NRP
U
*EL PRINT,ELSET=EPROBES
S
*ENERGY PRINT
*OUTPUT,FIELD,VARIABLE=PRESELECT
*OUTPUT,HISTORY
*ENERGY OUTPUT
*END STEP
