*HEADING
FEA1B_M3R_INTERFACE  case=ARM_MANEUVER_QS  mesh=T3_TT_FINE  eltype=C3D8I  material=AL6061_T6_CAND
M7 WP7 FEA_OPERATIONAL element-formulation closure (ODR-11/ODR-12).
Units: N, mm, MPa, tonne. Linear static. DESIGN_INDICATIVE results only.
** ELEMENT_FORMULATION: C3D8I -- incompatible-mode 8-node hex, 2x2x2 full integration, no hourglass modes, incompatible modes relieve shear locking in bending-dominated thin features (PRIMARY choice)
** MESH_SERIES: THROUGH_THICKNESS  n_xy=20 (pitch 8 mm)  kz=3
** ASSUMPTION: LINEAR_STATIC_SMALL_DISPLACEMENT (NLGEOM off; loads are milli-g level)
** ASSUMPTION: BUS_SIDE_ENCASTRE_ASSUMPTION: BC-BUS-001 bus stiffness authority is HOLD; z=0 face fully clamped = stiff-boundary design bound
** ASSUMPTION: BOLT_DISK_KINEMATIC_COUPLING_ASSUMPTION: M6/M5/M4 joints modelled as rigid coupling disks (r_b=12/10/10 mm, auto-grow to >=1 node/face, recorded); no preload, no friction, no slip
** ASSUMPTION: ARM_BASE_RIGID_SPIDER_ASSUMPTION: B601 base flange stiffness >> 8 mm ring; single RP spider onto 4 as-built M4 disks; sensitivity covered by the 3-level mesh convergence series (CDR rigid_spider rule)
** ASSUMPTION: NO_CONTACT_NO_PRELOAD_NO_FRICTION: CDR joint mechanics HOLD; faces outside bolt disks untied (separation/interpenetration possible; Level-1 bound)
** ASSUMPTION: STAGE_B_IDEALIZED_ANNULAR_PLATE: pocket/recess not resolved; bore dia100 through bottom 2 layers; centre web r<50 modelled 4.0 mm (real 5.595)
** ASSUMPTION: STAGE_A_IDEALIZED_UNIFORM_RING: OD150/ID40 x 8.0 uniform; spigot, recess, counterbores not resolved
** ASSUMPTION: BRIDGE_CORNER_RADIUS_OMITTED: R4 corners modelled square; all boundaries stepped at element corners
** ASSUMPTION: SMALL_HOLES_NOT_CUT: dia6.6/5.5/4.6 holes represented by coupling disks, not voids (locally stiffer); hole-edge peak stress NOT qualified here
** ASSUMPTION: POISSON_ASSUMPTION: nu=0.33 for both Al candidates (not in M6 library)
** ASSUMPTION: MATERIALS_CANDIDATE: 6061-T6 / 7075-T651 elastic constants from M6 WP4 library, classification PROTOTYPE_CANDIDATE; margins DESIGN_INDICATIVE only
** ASSUMPTION: DYNAMIC_FACTOR_ASSUMPTION: quasi-static equivalence F_eq=DAF*J/dt, DAF=2.0, dt=0.1 s; both declared assumptions, research-bound
** ASSUMPTION: LOAD_DIRECTION_ASSUMPTION: transverse +y force plus bending moment about +z; worst-axis alignment declared (near-axisymmetric stack)
** ASSUMPTION: MEMORY_GATE_MESH_ADAPTATION: seeds 16/10/8 mm replace draft 4/2/1 mm; <=4000 C3D8R; 6.7 mm ligament NOT resolved with 3 elements; convergence assessed on global maxima trend only
** ASSUMPTION: ARM_LOADS_BOUNDED_BY_ASSUMPTION: quintic peak accel from LC-010 trajectory x r_eff=0.7 m; e-stop = 2x maneuver; arm inertia tensor not reduced (arm cases shown to be non-governing)
** ASSUMPTION: ELEMENT_FORMULATION_CHANGE: C3D8R (1 IP + hourglass control) replaced by C3D8I (2x2x2 full integration + incompatible modes). No hourglass modes exist in C3D8I, so ALLAE must collapse to ~0; this is the acceptance test
** ASSUMPTION: IP_COUNT_COMPARABILITY: C3D8R reports 1 centroidal integration point, so its 'peak von Mises' is already an element-average; C3D8I reports 8 Gauss points, whose peak is systematically above the element average in a bending field. C3D8R peak must therefore be compared against the C3D8I ELEMENT-AVERAGED value, not against the C3D8I peak IP value
** ASSUMPTION: THROUGH_THICKNESS_REFINEMENT: kz multiplies the layer count of every z segment (bridge 2kz, stage B annulus 2kz, stage B web 1kz, stage A 2kz); kz=1 reproduces the FEA-1 plane list node-for-node
** ASSUMPTION: STAIRCASE_BOUNDARY_SINGULARITY: the dia-40 / dia-100 / OD-150 circular boundaries are stepped at element corners, so each in-plane refinement level presents a DIFFERENT discrete re-entrant-corner set. Peak stress at those steps cannot converge by construction and is excluded from the region-stress convergence metric (fixed 10 mm geometric band)
** ASSUMPTION: POINT_COUPLING_SINGULARITY: the arm-base RP kinematic coupling and the per-bolt kinematic couplings are point/patch constraints; peak stress in their immediate neighbourhood rises monotonically with refinement as a constraint singularity and is reported separately (ODR-11 singularity rule), with a fixed 15 mm exclusion radius for the far-field metric
** Case load: F_y=0.31050820236037147 N, M_z=217.35574165226001 N*mm (m_arm*(quintic q2_acc_max*r_eff); M=F*r_eff)
**
*NODE
1000001,-80.000000,-80.000000,0.000000
1000002,-72.000000,-80.000000,0.000000
1000003,-64.000000,-80.000000,0.000000
1000004,-56.000000,-80.000000,0.000000
1000005,-48.000000,-80.000000,0.000000
1000006,-40.000000,-80.000000,0.000000
1000007,-32.000000,-80.000000,0.000000
1000008,-24.000000,-80.000000,0.000000
1000009,-16.000000,-80.000000,0.000000
1000010,-8.000000,-80.000000,0.000000
1000011,0.000000,-80.000000,0.000000
1000012,8.000000,-80.000000,0.000000
1000013,16.000000,-80.000000,0.000000
1000014,24.000000,-80.000000,0.000000
1000015,32.000000,-80.000000,0.000000
1000016,40.000000,-80.000000,0.000000
1000017,48.000000,-80.000000,0.000000
1000018,56.000000,-80.000000,0.000000
1000019,64.000000,-80.000000,0.000000
1000020,72.000000,-80.000000,0.000000
** ... 8409 like lines cut
*ELEMENT,TYPE=C3D8I,ELSET=EALL
1,1000001,1000002,1001002,1001001,2000001,2000002,2001002,2001001
2,1000002,1000003,1001003,1001002,2000002,2000003,2001003,2001002
3,1000003,1000004,1001004,1001003,2000003,2000004,2001004,2001003
4,1000004,1000005,1001005,1001004,2000004,2000005,2001005,2001004
5,1000005,1000006,1001006,1001005,2000005,2000006,2001006,2001005
6,1000006,1000007,1001007,1001006,2000006,2000007,2001007,2001006
7,1000007,1000008,1001008,1001007,2000007,2000008,2001008,2001007
8,1000008,1000009,1001009,1001008,2000008,2000009,2001009,2001008
9,1000009,1000010,1001010,1001009,2000009,2000010,2001010,2001009
10,1000010,1000011,1001011,1001010,2000010,2000011,2001011,2001010
11,1000011,1000012,1001012,1001011,2000011,2000012,2001012,2001011
12,1000012,1000013,1001013,1001012,2000012,2000013,2001013,2001012
13,1000013,1000014,1001014,1001013,2000013,2000014,2001014,2001013
14,1000014,1000015,1001015,1001014,2000014,2000015,2001015,2001014
15,1000015,1000016,1001016,1001015,2000015,2000016,2001016,2001015
16,1000016,1000017,1001017,1001016,2000016,2000017,2001017,2001016
17,1000017,1000018,1001018,1001017,2000017,2000018,2001018,2001017
18,1000018,1000019,1001019,1001018,2000018,2000019,2001019,2001018
19,1000019,1000020,1001020,1001019,2000019,2000020,2001020,2001019
20,1000020,1000021,1001021,1001020,2000020,2000021,2001021,2001020
** ... 6148 like lines cut
*ELSET,ELSET=EBRIDGE
1,2,3,4,5,6,7,8,9,10,11,12,13,14,15,16
17,18,19,20,21,22,23,24,25,26,27,28,29,30,31,32
33,34,35,36,37,38,39,40,41,42,43,44,45,46,47,48
49,50,51,52,53,54,55,56,57,58,59,60,61,62,63,64
65,66,67,68,69,70,71,72,73,74,75,76,77,78,79,80
81,82,83,84,85,86,87,88,89,90,91,92,93,94,95,96
97,98,99,100,101,102,103,104,105,106,107,108,109,110,111,112
113,114,115,116,117,118,119,120,121,122,123,124,125,126,127,128
129,130,131,132,133,134,135,136,137,138,139,140,141,142,143,144
145,146,147,148,149,150,151,152,153,154,155,156,157,158,159,160
161,162,163,164,165,166,167,168,169,170,171,172,173,174,175,176
177,178,179,180,181,182,183,184,185,186,187,188,189,190,191,192
193,194,195,196,197,198,199,200,201,202,203,204,205,206,207,208
209,210,211,212,213,214,215,216,217,218,219,220,221,222,223,224
225,226,227,228,229,230,231,232,233,234,235,236,237,238,239,240
241,242,243,244,245,246,247,248,249,250,251,252,253,254,255,256
257,258,259,260,261,262,263,264,265,266,267,268,269,270,271,272
273,274,275,276,277,278,279,280,281,282,283,284,285,286,287,288
289,290,291,292,293,294,295,296,297,298,299,300,301,302,303,304
305,306,307,308,309,310,311,312,313,314,315,316,317,318,319,320
** ... 118 like lines cut
*ELSET,ELSET=ESTAGEB
2209,2210,2211,2212,2213,2214,2215,2216,2217,2218,2219,2220,2221,2222,2223,2224
2225,2226,2227,2228,2229,2230,2231,2232,2233,2234,2235,2236,2237,2238,2239,2240
2241,2242,2243,2244,2245,2246,2247,2248,2249,2250,2251,2252,2253,2254,2255,2256
2257,2258,2259,2260,2261,2262,2263,2264,2265,2266,2267,2268,2269,2270,2271,2272
2273,2274,2275,2276,2277,2278,2279,2280,2281,2282,2283,2284,2285,2286,2287,2288
2289,2290,2291,2292,2293,2294,2295,2296,2297,2298,2299,2300,2301,2302,2303,2304
2305,2306,2307,2308,2309,2310,2311,2312,2313,2314,2315,2316,2317,2318,2319,2320
2321,2322,2323,2324,2325,2326,2327,2328,2329,2330,2331,2332,2333,2334,2335,2336
2337,2338,2339,2340,2341,2342,2343,2344,2345,2346,2347,2348,2349,2350,2351,2352
2353,2354,2355,2356,2357,2358,2359,2360,2361,2362,2363,2364,2365,2366,2367,2368
2369,2370,2371,2372,2373,2374,2375,2376,2377,2378,2379,2380,2381,2382,2383,2384
2385,2386,2387,2388,2389,2390,2391,2392,2393,2394,2395,2396,2397,2398,2399,2400
2401,2402,2403,2404,2405,2406,2407,2408,2409,2410,2411,2412,2413,2414,2415,2416
2417,2418,2419,2420,2421,2422,2423,2424,2425,2426,2427,2428,2429,2430,2431,2432
2433,2434,2435,2436,2437,2438,2439,2440,2441,2442,2443,2444,2445,2446,2447,2448
2449,2450,2451,2452,2453,2454,2455,2456,2457,2458,2459,2460,2461,2462,2463,2464
2465,2466,2467,2468,2469,2470,2471,2472,2473,2474,2475,2476,2477,2478,2479,2480
2481,2482,2483,2484,2485,2486,2487,2488,2489,2490,2491,2492,2493,2494,2495,2496
2497,2498,2499,2500,2501,2502,2503,2504,2505,2506,2507,2508,2509,2510,2511,2512
2513,2514,2515,2516,2517,2518,2519,2520,2521,2522,2523,2524,2525,2526,2527,2528
** ... 150 like lines cut
*ELSET,ELSET=ESTAGEA
4921,4922,4923,4924,4925,4926,4927,4928,4929,4930,4931,4932,4933,4934,4935,4936
4937,4938,4939,4940,4941,4942,4943,4944,4945,4946,4947,4948,4949,4950,4951,4952
4953,4954,4955,4956,4957,4958,4959,4960,4961,4962,4963,4964,4965,4966,4967,4968
4969,4970,4971,4972,4973,4974,4975,4976,4977,4978,4979,4980,4981,4982,4983,4984
4985,4986,4987,4988,4989,4990,4991,4992,4993,4994,4995,4996,4997,4998,4999,5000
5001,5002,5003,5004,5005,5006,5007,5008,5009,5010,5011,5012,5013,5014,5015,5016
5017,5018,5019,5020,5021,5022,5023,5024,5025,5026,5027,5028,5029,5030,5031,5032
5033,5034,5035,5036,5037,5038,5039,5040,5041,5042,5043,5044,5045,5046,5047,5048
5049,5050,5051,5052,5053,5054,5055,5056,5057,5058,5059,5060,5061,5062,5063,5064
5065,5066,5067,5068,5069,5070,5071,5072,5073,5074,5075,5076,5077,5078,5079,5080
5081,5082,5083,5084,5085,5086,5087,5088,5089,5090,5091,5092,5093,5094,5095,5096
5097,5098,5099,5100,5101,5102,5103,5104,5105,5106,5107,5108,5109,5110,5111,5112
5113,5114,5115,5116,5117,5118,5119,5120,5121,5122,5123,5124,5125,5126,5127,5128
5129,5130,5131,5132,5133,5134,5135,5136,5137,5138,5139,5140,5141,5142,5143,5144
5145,5146,5147,5148,5149,5150,5151,5152,5153,5154,5155,5156,5157,5158,5159,5160
5161,5162,5163,5164,5165,5166,5167,5168,5169,5170,5171,5172,5173,5174,5175,5176
5177,5178,5179,5180,5181,5182,5183,5184,5185,5186,5187,5188,5189,5190,5191,5192
5193,5194,5195,5196,5197,5198,5199,5200,5201,5202,5203,5204,5205,5206,5207,5208
5209,5210,5211,5212,5213,5214,5215,5216,5217,5218,5219,5220,5221,5222,5223,5224
5225,5226,5227,5228,5229,5230,5231,5232,5233,5234,5235,5236,5237,5238,5239,5240
** ... 58 like lines cut
*ELSET,ELSET=EPROBES
2166,4015,6139,914
*NSET,NSET=NFIXED
1000001,1000002,1000003,1000004,1000005,1000006,1000007,1000008,1000009,1000010,1000011,1000012,1000013,1000014,1000015,1000016
1000017,1000018,1000019,1000020,1000021,1001001,1001002,1001003,1001004,1001005,1001006,1001007,1001008,1001009,1001010,1001011
1001012,1001013,1001014,1001015,1001016,1001017,1001018,1001019,1001020,1001021,1002001,1002002,1002003,1002004,1002005,1002006
1002007,1002008,1002009,1002010,1002011,1002012,1002013,1002014,1002015,1002016,1002017,1002018,1002019,1002020,1002021,1003001
1003002,1003003,1003004,1003005,1003006,1003007,1003008,1003009,1003010,1003011,1003012,1003013,1003014,1003015,1003016,1003017
1003018,1003019,1003020,1003021,1004001,1004002,1004003,1004004,1004005,1004006,1004007,1004008,1004009,1004010,1004011,1004012
1004013,1004014,1004015,1004016,1004017,1004018,1004019,1004020,1004021,1005001,1005002,1005003,1005004,1005005,1005006,1005007
1005008,1005009,1005010,1005011,1005012,1005013,1005014,1005015,1005016,1005017,1005018,1005019,1005020,1005021,1006001,1006002
1006003,1006004,1006005,1006006,1006007,1006008,1006009,1006010,1006011,1006012,1006013,1006014,1006015,1006016,1006017,1006018
1006019,1006020,1006021,1007001,1007002,1007003,1007004,1007005,1007006,1007007,1007008,1007009,1007010,1007011,1007012,1007013
1007014,1007015,1007016,1007017,1007018,1007019,1007020,1007021,1008001,1008002,1008003,1008004,1008005,1008006,1008007,1008008
1008009,1008013,1008014,1008015,1008016,1008017,1008018,1008019,1008020,1008021,1009001,1009002,1009003,1009004,1009005,1009006
1009007,1009008,1009014,1009015,1009016,1009017,1009018,1009019,1009020,1009021,1010001,1010002,1010003,1010004,1010005,1010006
1010007,1010008,1010014,1010015,1010016,1010017,1010018,1010019,1010020,1010021,1011001,1011002,1011003,1011004,1011005,1011006
1011007,1011008,1011014,1011015,1011016,1011017,1011018,1011019,1011020,1011021,1012001,1012002,1012003,1012004,1012005,1012006
1012007,1012008,1012009,1012013,1012014,1012015,1012016,1012017,1012018,1012019,1012020,1012021,1013001,1013002,1013003,1013004
1013005,1013006,1013007,1013008,1013009,1013010,1013011,1013012,1013013,1013014,1013015,1013016,1013017,1013018,1013019,1013020
1013021,1014001,1014002,1014003,1014004,1014005,1014006,1014007,1014008,1014009,1014010,1014011,1014012,1014013,1014014,1014015
1014016,1014017,1014018,1014019,1014020,1014021,1015001,1015002,1015003,1015004,1015005,1015006,1015007,1015008,1015009,1015010
1015011,1015012,1015013,1015014,1015015,1015016,1015017,1015018,1015019,1015020,1015021,1016001,1016002,1016003,1016004,1016005
** ... 7 like lines cut
*NSET,NSET=NRP
99000000
*NSET,NSET=NS_ARM_SPIDER
24004009,24004010,24005008,24005009,24005010,24007016,24008016,24008017,24009016,24009017,24011005,24011006,24012005,24012006,24013006,24015012
24015013,24015014,24016012,24016013
*NSET,NSET=NS_M5_1
17012018,17013017,17013018,17013019,17014018,18012018,18013017,18013018,18013019,18014018
*NSET,NSET=NS_M5_2
17016014,17017013,17017014,17017015,17018014,18016014,18017013,18017014,18017015,18018014
*NSET,NSET=NS_M5_3
17016008,17017007,17017008,17017009,17018008,18016008,18017007,18017008,18017009,18018008
*NSET,NSET=NS_M5_4
17012004,17013003,17013004,17013005,17014004,18012004,18013003,18013004,18013005,18014004
*NSET,NSET=NS_M5_5
17006004,17007003,17007004,17007005,17008004,18006004,18007003,18007004,18007005,18008004
*NSET,NSET=NS_M5_6
17002008,17003007,17003008,17003009,17004008,18002008,18003007,18003008,18003009,18004008
*NSET,NSET=NS_M5_7
17002014,17003013,17003014,17003015,17004014,18002014,18003013,18003014,18003015,18004014
*NSET,NSET=NS_M5_8
17006018,17007017,17007018,17007019,17008018,18006018,18007017,18007018,18007019,18008018
*NSET,NSET=NS_M6_1
7018019,7018020,7018021,7019019,7019020,7019021,7020019,7020020,8018019,8018020,8018021,8019019,8019020,8019021,8020019,8020020
*NSET,NSET=NS_M6_2
7000019,7000020,7001019,7001020,7001021,7002019,7002020,7002021,8000019,8000020,8001019,8001020,8001021,8002019,8002020,8002021
*NSET,NSET=NS_M6_3
7018001,7018002,7018003,7019001,7019002,7019003,7020002,7020003,8018001,8018002,8018003,8019001,8019002,8019003,8020002,8020003
*NSET,NSET=NS_M6_4
7000002,7000003,7001001,7001002,7001003,7002001,7002002,7002003,8000002,8000003,8001001,8001002,8001003,8002001,8002002,8002003
*MATERIAL,NAME=AL6061_T6_CAND
*ELASTIC
68300.0,0.33
*DENSITY
2.700e-09
*SOLID SECTION,ELSET=EBRIDGE,MATERIAL=AL6061_T6_CAND
*SOLID SECTION,ELSET=ESTAGEB,MATERIAL=AL6061_T6_CAND
*SOLID SECTION,ELSET=ESTAGEA,MATERIAL=AL6061_T6_CAND
*BOUNDARY
NFIXED,ENCASTRE
** joint couplings (bolt-disk rigid zones) -- identical to solved FEA-1
*SURFACE,TYPE=NODE,NAME=S_NS_ARM_SPIDER
NS_ARM_SPIDER,
*SURFACE,TYPE=NODE,NAME=S_NS_M5_1
NS_M5_1,
*SURFACE,TYPE=NODE,NAME=S_NS_M5_2
NS_M5_2,
*SURFACE,TYPE=NODE,NAME=S_NS_M5_3
NS_M5_3,
*SURFACE,TYPE=NODE,NAME=S_NS_M5_4
NS_M5_4,
*SURFACE,TYPE=NODE,NAME=S_NS_M5_5
NS_M5_5,
*SURFACE,TYPE=NODE,NAME=S_NS_M5_6
NS_M5_6,
*SURFACE,TYPE=NODE,NAME=S_NS_M5_7
NS_M5_7,
*SURFACE,TYPE=NODE,NAME=S_NS_M5_8
NS_M5_8,
*SURFACE,TYPE=NODE,NAME=S_NS_M6_1
NS_M6_1,
*SURFACE,TYPE=NODE,NAME=S_NS_M6_2
NS_M6_2,
*SURFACE,TYPE=NODE,NAME=S_NS_M6_3
NS_M6_3,
*SURFACE,TYPE=NODE,NAME=S_NS_M6_4
NS_M6_4,
*COUPLING,CONSTRAINT NAME=M6_1,REF NODE=99000100,SURFACE=S_NS_M6_1
*KINEMATIC
1,6
*COUPLING,CONSTRAINT NAME=M6_2,REF NODE=99000101,SURFACE=S_NS_M6_2
*KINEMATIC
1,6
*COUPLING,CONSTRAINT NAME=M6_3,REF NODE=99000102,SURFACE=S_NS_M6_3
*KINEMATIC
1,6
*COUPLING,CONSTRAINT NAME=M6_4,REF NODE=99000103,SURFACE=S_NS_M6_4
*KINEMATIC
1,6
*COUPLING,CONSTRAINT NAME=M5_1,REF NODE=99000200,SURFACE=S_NS_M5_1
*KINEMATIC
1,6
*COUPLING,CONSTRAINT NAME=M5_2,REF NODE=99000201,SURFACE=S_NS_M5_2
*KINEMATIC
1,6
*COUPLING,CONSTRAINT NAME=M5_3,REF NODE=99000202,SURFACE=S_NS_M5_3
*KINEMATIC
1,6
*COUPLING,CONSTRAINT NAME=M5_4,REF NODE=99000203,SURFACE=S_NS_M5_4
*KINEMATIC
1,6
*COUPLING,CONSTRAINT NAME=M5_5,REF NODE=99000204,SURFACE=S_NS_M5_5
*KINEMATIC
1,6
*COUPLING,CONSTRAINT NAME=M5_6,REF NODE=99000205,SURFACE=S_NS_M5_6
*KINEMATIC
1,6
*COUPLING,CONSTRAINT NAME=M5_7,REF NODE=99000206,SURFACE=S_NS_M5_7
*KINEMATIC
1,6
*COUPLING,CONSTRAINT NAME=M5_8,REF NODE=99000207,SURFACE=S_NS_M5_8
*KINEMATIC
1,6
*COUPLING,CONSTRAINT NAME=ARM_SPIDER,REF NODE=99000000,SURFACE=S_NS_ARM_SPIDER
*KINEMATIC
1,6
*STEP,NAME=QS_STEP,NLGEOM=NO
*STATIC
1.0,1.0
*CLOAD
99000000,2,0.31050820236037147
99000000,6,217.35574165226001
*NODE PRINT,NSET=NFIXED
RF
*NODE PRINT,NSET=NRP
U
*EL PRINT,ELSET=EPROBES
S
*ENERGY PRINT
*OUTPUT,FIELD,VARIABLE=PRESELECT
*OUTPUT,HISTORY
*ENERGY OUTPUT
*END STEP
