*HEADING
FEA1_M3R_INTERFACE  case=CAPTURE_150KG_QS  mesh=FINE  material=AL7075_T651_CAND
M7 WP7 FEA_OPERATIONAL -- operational on-orbit quasi-static screen.
Units: N, mm, MPa, tonne. Linear static. DESIGN_INDICATIVE results only.
** ASSUMPTION: LINEAR_STATIC_SMALL_DISPLACEMENT (NLGEOM off; loads are milli-g level)
** ASSUMPTION: BUS_SIDE_ENCASTRE_ASSUMPTION: BC-BUS-001 bus stiffness authority is HOLD; z=0 face fully clamped = stiff-boundary design bound
** ASSUMPTION: BOLT_DISK_KINEMATIC_COUPLING_ASSUMPTION: M6/M5/M4 joints modelled as rigid coupling disks (r_b=12/10/10 mm, auto-grow to >=1 node/face, recorded); no preload, no friction, no slip
** ASSUMPTION: ARM_BASE_RIGID_SPIDER_ASSUMPTION: B601 base flange stiffness >> 8 mm ring; single RP spider onto 4 as-built M4 disks; sensitivity covered by the 3-level mesh convergence series (CDR rigid_spider rule)
** ASSUMPTION: NO_CONTACT_NO_PRELOAD_NO_FRICTION: CDR joint mechanics HOLD; faces outside bolt disks untied (separation/interpenetration possible; Level-1 bound)
** ASSUMPTION: STAGE_B_IDEALIZED_ANNULAR_PLATE: pocket/recess not resolved; bore dia100 through bottom 2 layers; centre web r<50 modelled 4.0 mm (real 5.595)
** ASSUMPTION: STAGE_A_IDEALIZED_UNIFORM_RING: OD150/ID40 x 8.0 uniform; spigot, recess, counterbores not resolved
** ASSUMPTION: BRIDGE_CORNER_RADIUS_OMITTED: R4 corners modelled square; all boundaries stepped at element corners
** ASSUMPTION: SMALL_HOLES_NOT_CUT: dia6.6/5.5/4.6 holes represented by coupling disks, not voids (locally stiffer); hole-edge peak stress NOT qualified here
** ASSUMPTION: POISSON_ASSUMPTION: nu=0.33 for both Al candidates (not in M6 library)
** ASSUMPTION: MATERIALS_CANDIDATE: 6061-T6 / 7075-T651 elastic constants from M6 WP4 library, classification PROTOTYPE_CANDIDATE; margins DESIGN_INDICATIVE only
** ASSUMPTION: DYNAMIC_FACTOR_ASSUMPTION: quasi-static equivalence F_eq=DAF*J/dt, DAF=2.0, dt=0.1 s; both declared assumptions, research-bound
** ASSUMPTION: LOAD_DIRECTION_ASSUMPTION: transverse +y force plus bending moment about +z; worst-axis alignment declared (near-axisymmetric stack)
** ASSUMPTION: MEMORY_GATE_MESH_ADAPTATION: seeds 16/10/8 mm replace draft 4/2/1 mm; <=4000 C3D8R; 6.7 mm ligament NOT resolved with 3 elements; convergence assessed on global maxima trend only
** ASSUMPTION: ARM_LOADS_BOUNDED_BY_ASSUMPTION: quintic peak accel from LC-010 trajectory x r_eff=0.7 m; e-stop = 2x maneuver; arm inertia tensor not reduced (arm cases shown to be non-governing)
** Case load: F_y=13.5527 N, M_z=19073.3 N*mm (F=DAF*J/dt; M=F*L_grasp+DAF*C/dt (envelope row CAP150_030))
**
*NODE
1,-80.000000,-80.000000,0.000000
2,-72.000000,-80.000000,0.000000
3,-64.000000,-80.000000,0.000000
4,-56.000000,-80.000000,0.000000
5,-48.000000,-80.000000,0.000000
6,-40.000000,-80.000000,0.000000
7,-32.000000,-80.000000,0.000000
8,-24.000000,-80.000000,0.000000
9,-16.000000,-80.000000,0.000000
10,-8.000000,-80.000000,0.000000
11,0.000000,-80.000000,0.000000
12,8.000000,-80.000000,0.000000
13,16.000000,-80.000000,0.000000
14,24.000000,-80.000000,0.000000
15,32.000000,-80.000000,0.000000
16,40.000000,-80.000000,0.000000
17,48.000000,-80.000000,0.000000
18,56.000000,-80.000000,0.000000
19,64.000000,-80.000000,0.000000
20,72.000000,-80.000000,0.000000
** ... 3543 like lines cut
*ELEMENT,TYPE=C3D8R,ELSET=EALL
1,1,2,1002,1001,100001,100002,101002,101001
2,2,3,1003,1002,100002,100003,101003,101002
3,3,4,1004,1003,100003,100004,101004,101003
4,4,5,1005,1004,100004,100005,101005,101004
5,5,6,1006,1005,100005,100006,101006,101005
6,6,7,1007,1006,100006,100007,101007,101006
7,7,8,1008,1007,100007,100008,101008,101007
8,8,9,1009,1008,100008,100009,101009,101008
9,9,10,1010,1009,100009,100010,101010,101009
10,10,11,1011,1010,100010,100011,101011,101010
11,11,12,1012,1011,100011,100012,101012,101011
12,12,13,1013,1012,100012,100013,101013,101012
13,13,14,1014,1013,100013,100014,101014,101013
14,14,15,1015,1014,100014,100015,101015,101014
15,15,16,1016,1015,100015,100016,101016,101015
16,16,17,1017,1016,100016,100017,101017,101016
17,17,18,1018,1017,100017,100018,101018,101017
18,18,19,1019,1018,100018,100019,101019,101018
19,19,20,1020,1019,100019,100020,101020,101019
20,20,21,1021,1020,100020,100021,101021,101020
** ... 2036 like lines cut
*ELSET,ELSET=EBRIDGE
1,2,3,4,5,6,7,8,9,10,11,12,13,14,15,16
17,18,19,20,21,22,23,24,25,26,27,28,29,30,31,32
33,34,35,36,37,38,39,40,41,42,43,44,45,46,47,48
49,50,51,52,53,54,55,56,57,58,59,60,61,62,63,64
65,66,67,68,69,70,71,72,73,74,75,76,77,78,79,80
81,82,83,84,85,86,87,88,89,90,91,92,93,94,95,96
97,98,99,100,101,102,103,104,105,106,107,108,109,110,111,112
113,114,115,116,117,118,119,120,121,122,123,124,125,126,127,128
129,130,131,132,133,134,135,136,137,138,139,140,141,142,143,144
145,146,147,148,149,150,151,152,153,154,155,156,157,158,159,160
161,162,163,164,165,166,167,168,169,170,171,172,173,174,175,176
177,178,179,180,181,182,183,184,185,186,187,188,189,190,191,192
193,194,195,196,197,198,199,200,201,202,203,204,205,206,207,208
209,210,211,212,213,214,215,216,217,218,219,220,221,222,223,224
225,226,227,228,229,230,231,232,233,234,235,236,237,238,239,240
241,242,243,244,245,246,247,248,249,250,251,252,253,254,255,256
257,258,259,260,261,262,263,264,265,266,267,268,269,270,271,272
273,274,275,276,277,278,279,280,281,282,283,284,285,286,287,288
289,290,291,292,293,294,295,296,297,298,299,300,301,302,303,304
305,306,307,308,309,310,311,312,313,314,315,316,317,318,319,320
** ... 26 like lines cut
*ELSET,ELSET=ESTAGEB
737,738,739,740,741,742,743,744,745,746,747,748,749,750,751,752
753,754,755,756,757,758,759,760,761,762,763,764,765,766,767,768
769,770,771,772,773,774,775,776,777,778,779,780,781,782,783,784
785,786,787,788,789,790,791,792,793,794,795,796,797,798,799,800
801,802,803,804,805,806,807,808,809,810,811,812,813,814,815,816
817,818,819,820,821,822,823,824,825,826,827,828,829,830,831,832
833,834,835,836,837,838,839,840,841,842,843,844,845,846,847,848
849,850,851,852,853,854,855,856,857,858,859,860,861,862,863,864
865,866,867,868,869,870,871,872,873,874,875,876,877,878,879,880
881,882,883,884,885,886,887,888,889,890,891,892,893,894,895,896
897,898,899,900,901,902,903,904,905,906,907,908,909,910,911,912
913,914,915,916,917,918,919,920,921,922,923,924,925,926,927,928
929,930,931,932,933,934,935,936,937,938,939,940,941,942,943,944
945,946,947,948,949,950,951,952,953,954,955,956,957,958,959,960
961,962,963,964,965,966,967,968,969,970,971,972,973,974,975,976
977,978,979,980,981,982,983,984,985,986,987,988,989,990,991,992
993,994,995,996,997,998,999,1000,1001,1002,1003,1004,1005,1006,1007,1008
1009,1010,1011,1012,1013,1014,1015,1016,1017,1018,1019,1020,1021,1022,1023,1024
1025,1026,1027,1028,1029,1030,1031,1032,1033,1034,1035,1036,1037,1038,1039,1040
1041,1042,1043,1044,1045,1046,1047,1048,1049,1050,1051,1052,1053,1054,1055,1056
** ... 37 like lines cut
*ELSET,ELSET=ESTAGEA
1641,1642,1643,1644,1645,1646,1647,1648,1649,1650,1651,1652,1653,1654,1655,1656
1657,1658,1659,1660,1661,1662,1663,1664,1665,1666,1667,1668,1669,1670,1671,1672
1673,1674,1675,1676,1677,1678,1679,1680,1681,1682,1683,1684,1685,1686,1687,1688
1689,1690,1691,1692,1693,1694,1695,1696,1697,1698,1699,1700,1701,1702,1703,1704
1705,1706,1707,1708,1709,1710,1711,1712,1713,1714,1715,1716,1717,1718,1719,1720
1721,1722,1723,1724,1725,1726,1727,1728,1729,1730,1731,1732,1733,1734,1735,1736
1737,1738,1739,1740,1741,1742,1743,1744,1745,1746,1747,1748,1749,1750,1751,1752
1753,1754,1755,1756,1757,1758,1759,1760,1761,1762,1763,1764,1765,1766,1767,1768
1769,1770,1771,1772,1773,1774,1775,1776,1777,1778,1779,1780,1781,1782,1783,1784
1785,1786,1787,1788,1789,1790,1791,1792,1793,1794,1795,1796,1797,1798,1799,1800
1801,1802,1803,1804,1805,1806,1807,1808,1809,1810,1811,1812,1813,1814,1815,1816
1817,1818,1819,1820,1821,1822,1823,1824,1825,1826,1827,1828,1829,1830,1831,1832
1833,1834,1835,1836,1837,1838,1839,1840,1841,1842,1843,1844,1845,1846,1847,1848
1849,1850,1851,1852,1853,1854,1855,1856,1857,1858,1859,1860,1861,1862,1863,1864
1865,1866,1867,1868,1869,1870,1871,1872,1873,1874,1875,1876,1877,1878,1879,1880
1881,1882,1883,1884,1885,1886,1887,1888,1889,1890,1891,1892,1893,1894,1895,1896
1897,1898,1899,1900,1901,1902,1903,1904,1905,1906,1907,1908,1909,1910,1911,1912
1913,1914,1915,1916,1917,1918,1919,1920,1921,1922,1923,1924,1925,1926,1927,1928
1929,1930,1931,1932,1933,1934,1935,1936,1937,1938,1939,1940,1941,1942,1943,1944
1945,1946,1947,1948,1949,1950,1951,1952,1953,1954,1955,1956,1957,1958,1959,1960
** ... 6 like lines cut
*ELSET,ELSET=EPROBES
694,1535,2027,178
*NSET,NSET=NFIXED
1,2,3,4,5,6,7,8,9,10,11,12,13,14,15,16
17,18,19,20,21,1001,1002,1003,1004,1005,1006,1007,1008,1009,1010,1011
1012,1013,1014,1015,1016,1017,1018,1019,1020,1021,2001,2002,2003,2004,2005,2006
2007,2008,2009,2010,2011,2012,2013,2014,2015,2016,2017,2018,2019,2020,2021,3001
3002,3003,3004,3005,3006,3007,3008,3009,3010,3011,3012,3013,3014,3015,3016,3017
3018,3019,3020,3021,4001,4002,4003,4004,4005,4006,4007,4008,4009,4010,4011,4012
4013,4014,4015,4016,4017,4018,4019,4020,4021,5001,5002,5003,5004,5005,5006,5007
5008,5009,5010,5011,5012,5013,5014,5015,5016,5017,5018,5019,5020,5021,6001,6002
6003,6004,6005,6006,6007,6008,6009,6010,6011,6012,6013,6014,6015,6016,6017,6018
6019,6020,6021,7001,7002,7003,7004,7005,7006,7007,7008,7009,7010,7011,7012,7013
7014,7015,7016,7017,7018,7019,7020,7021,8001,8002,8003,8004,8005,8006,8007,8008
8009,8013,8014,8015,8016,8017,8018,8019,8020,8021,9001,9002,9003,9004,9005,9006
9007,9008,9014,9015,9016,9017,9018,9019,9020,9021,10001,10002,10003,10004,10005,10006
10007,10008,10014,10015,10016,10017,10018,10019,10020,10021,11001,11002,11003,11004,11005,11006
11007,11008,11014,11015,11016,11017,11018,11019,11020,11021,12001,12002,12003,12004,12005,12006
12007,12008,12009,12013,12014,12015,12016,12017,12018,12019,12020,12021,13001,13002,13003,13004
13005,13006,13007,13008,13009,13010,13011,13012,13013,13014,13015,13016,13017,13018,13019,13020
13021,14001,14002,14003,14004,14005,14006,14007,14008,14009,14010,14011,14012,14013,14014,14015
14016,14017,14018,14019,14020,14021,15001,15002,15003,15004,15005,15006,15007,15008,15009,15010
15011,15012,15013,15014,15015,15016,15017,15018,15019,15020,15021,16001,16002,16003,16004,16005
** ... 7 like lines cut
*NSET,NSET=NRP
900000
*NSET,NSET=NS_M6_1
218019,218020,218021,219019,219020,219021,220019,220020,318019,318020,318021,319019,319020,319021,320019,320020
*NSET,NSET=NS_M6_2
200019,200020,201019,201020,201021,202019,202020,202021,300019,300020,301019,301020,301021,302019,302020,302021
*NSET,NSET=NS_M6_3
218001,218002,218003,219001,219002,219003,220002,220003,318001,318002,318003,319001,319002,319003,320002,320003
*NSET,NSET=NS_M6_4
200002,200003,201001,201002,201003,202001,202002,202003,300002,300003,301001,301002,301003,302001,302002,302003
*NSET,NSET=NS_M5_1
612018,613017,613018,613019,614018,712018,713017,713018,713019,714018
*NSET,NSET=NS_M5_2
616014,617013,617014,617015,618014,716014,717013,717014,717015,718014
*NSET,NSET=NS_M5_3
616008,617007,617008,617009,618008,716008,717007,717008,717009,718008
*NSET,NSET=NS_M5_4
612004,613003,613004,613005,614004,712004,713003,713004,713005,714004
*NSET,NSET=NS_M5_5
606004,607003,607004,607005,608004,706004,707003,707004,707005,708004
*NSET,NSET=NS_M5_6
602008,603007,603008,603009,604008,702008,703007,703008,703009,704008
*NSET,NSET=NS_M5_7
602014,603013,603014,603015,604014,702014,703013,703014,703015,704014
*NSET,NSET=NS_M5_8
606018,607017,607018,607019,608018,706018,707017,707018,707019,708018
*NSET,NSET=NS_ARM_SPIDER
904009,904010,905008,905009,905010,907016,908016,908017,909016,909017,911005,911006,912005,912006,913006,915012
915013,915014,916012,916013
*MATERIAL,NAME=AL7075_T651_CAND
*ELASTIC
71000.0,0.33
*DENSITY
2.800e-09
*SOLID SECTION,ELSET=EBRIDGE,MATERIAL=AL7075_T651_CAND
*SOLID SECTION,ELSET=ESTAGEB,MATERIAL=AL7075_T651_CAND
*SOLID SECTION,ELSET=ESTAGEA,MATERIAL=AL7075_T651_CAND
*BOUNDARY
NFIXED,ENCASTRE
** joint couplings (bolt-disk rigid zones)
*SURFACE,TYPE=NODE,NAME=S_NS_M6_1
NS_M6_1,
*SURFACE,TYPE=NODE,NAME=S_NS_M6_2
NS_M6_2,
*SURFACE,TYPE=NODE,NAME=S_NS_M6_3
NS_M6_3,
*SURFACE,TYPE=NODE,NAME=S_NS_M6_4
NS_M6_4,
*SURFACE,TYPE=NODE,NAME=S_NS_M5_1
NS_M5_1,
*SURFACE,TYPE=NODE,NAME=S_NS_M5_2
NS_M5_2,
*SURFACE,TYPE=NODE,NAME=S_NS_M5_3
NS_M5_3,
*SURFACE,TYPE=NODE,NAME=S_NS_M5_4
NS_M5_4,
*SURFACE,TYPE=NODE,NAME=S_NS_M5_5
NS_M5_5,
*SURFACE,TYPE=NODE,NAME=S_NS_M5_6
NS_M5_6,
*SURFACE,TYPE=NODE,NAME=S_NS_M5_7
NS_M5_7,
*SURFACE,TYPE=NODE,NAME=S_NS_M5_8
NS_M5_8,
*SURFACE,TYPE=NODE,NAME=S_NS_ARM_SPIDER
NS_ARM_SPIDER,
*COUPLING,CONSTRAINT NAME=M6_1,REF NODE=900100,SURFACE=S_NS_M6_1
*KINEMATIC
1,6
*COUPLING,CONSTRAINT NAME=M6_2,REF NODE=900101,SURFACE=S_NS_M6_2
*KINEMATIC
1,6
*COUPLING,CONSTRAINT NAME=M6_3,REF NODE=900102,SURFACE=S_NS_M6_3
*KINEMATIC
1,6
*COUPLING,CONSTRAINT NAME=M6_4,REF NODE=900103,SURFACE=S_NS_M6_4
*KINEMATIC
1,6
*COUPLING,CONSTRAINT NAME=M5_1,REF NODE=900200,SURFACE=S_NS_M5_1
*KINEMATIC
1,6
*COUPLING,CONSTRAINT NAME=M5_2,REF NODE=900201,SURFACE=S_NS_M5_2
*KINEMATIC
1,6
*COUPLING,CONSTRAINT NAME=M5_3,REF NODE=900202,SURFACE=S_NS_M5_3
*KINEMATIC
1,6
*COUPLING,CONSTRAINT NAME=M5_4,REF NODE=900203,SURFACE=S_NS_M5_4
*KINEMATIC
1,6
*COUPLING,CONSTRAINT NAME=M5_5,REF NODE=900204,SURFACE=S_NS_M5_5
*KINEMATIC
1,6
*COUPLING,CONSTRAINT NAME=M5_6,REF NODE=900205,SURFACE=S_NS_M5_6
*KINEMATIC
1,6
*COUPLING,CONSTRAINT NAME=M5_7,REF NODE=900206,SURFACE=S_NS_M5_7
*KINEMATIC
1,6
*COUPLING,CONSTRAINT NAME=M5_8,REF NODE=900207,SURFACE=S_NS_M5_8
*KINEMATIC
1,6
*COUPLING,CONSTRAINT NAME=ARM_SPIDER,REF NODE=900000,SURFACE=S_NS_ARM_SPIDER
*KINEMATIC
1,6
*STEP,NAME=QS_STEP,NLGEOM=NO
*STATIC
1.0,1.0
*CLOAD
900000,2,13.5527
900000,6,19073.3
*NODE PRINT,NSET=NFIXED
RF
*NODE PRINT,NSET=NRP
U
*EL PRINT,ELSET=EPROBES
S
*ENERGY PRINT
*OUTPUT,FIELD,VARIABLE=PRESELECT
*OUTPUT,HISTORY
*ENERGY OUTPUT
*END STEP
