*HEADING
FEA1_M3R_INTERFACE  case=CAPTURE_22KG_QS  mesh=COARSE  material=AL6061_T6_CAND
M7 WP7 FEA_OPERATIONAL -- operational on-orbit quasi-static screen.
Units: N, mm, MPa, tonne. Linear static. DESIGN_INDICATIVE results only.
** ASSUMPTION: LINEAR_STATIC_SMALL_DISPLACEMENT (NLGEOM off; loads are milli-g level)
** ASSUMPTION: BUS_SIDE_ENCASTRE_ASSUMPTION: BC-BUS-001 bus stiffness authority is HOLD; z=0 face fully clamped = stiff-boundary design bound
** ASSUMPTION: BOLT_DISK_KINEMATIC_COUPLING_ASSUMPTION: M6/M5/M4 joints modelled as rigid coupling disks (r_b=12/10/10 mm, auto-grow to >=1 node/face, recorded); no preload, no friction, no slip
** ASSUMPTION: ARM_BASE_RIGID_SPIDER_ASSUMPTION: B601 base flange stiffness >> 8 mm ring; single RP spider onto 4 as-built M4 disks; sensitivity covered by the 3-level mesh convergence series (CDR rigid_spider rule)
** ASSUMPTION: NO_CONTACT_NO_PRELOAD_NO_FRICTION: CDR joint mechanics HOLD; faces outside bolt disks untied (separation/interpenetration possible; Level-1 bound)
** ASSUMPTION: STAGE_B_IDEALIZED_ANNULAR_PLATE: pocket/recess not resolved; bore dia100 through bottom 2 layers; centre web r<50 modelled 4.0 mm (real 5.595)
** ASSUMPTION: STAGE_A_IDEALIZED_UNIFORM_RING: OD150/ID40 x 8.0 uniform; spigot, recess, counterbores not resolved
** ASSUMPTION: BRIDGE_CORNER_RADIUS_OMITTED: R4 corners modelled square; all boundaries stepped at element corners
** ASSUMPTION: SMALL_HOLES_NOT_CUT: dia6.6/5.5/4.6 holes represented by coupling disks, not voids (locally stiffer); hole-edge peak stress NOT qualified here
** ASSUMPTION: POISSON_ASSUMPTION: nu=0.33 for both Al candidates (not in M6 library)
** ASSUMPTION: MATERIALS_CANDIDATE: 6061-T6 / 7075-T651 elastic constants from M6 WP4 library, classification PROTOTYPE_CANDIDATE; margins DESIGN_INDICATIVE only
** ASSUMPTION: DYNAMIC_FACTOR_ASSUMPTION: quasi-static equivalence F_eq=DAF*J/dt, DAF=2.0, dt=0.1 s; both declared assumptions, research-bound
** ASSUMPTION: LOAD_DIRECTION_ASSUMPTION: transverse +y force plus bending moment about +z; worst-axis alignment declared (near-axisymmetric stack)
** ASSUMPTION: MEMORY_GATE_MESH_ADAPTATION: seeds 16/10/8 mm replace draft 4/2/1 mm; <=4000 C3D8R; 6.7 mm ligament NOT resolved with 3 elements; convergence assessed on global maxima trend only
** ASSUMPTION: ARM_LOADS_BOUNDED_BY_ASSUMPTION: quintic peak accel from LC-010 trajectory x r_eff=0.7 m; e-stop = 2x maneuver; arm inertia tensor not reduced (arm cases shown to be non-governing)
** Case load: F_y=7.21244 N, M_z=1846.14 N*mm (F=DAF*J/dt; M=F*L_grasp+DAF*C/dt (envelope row CAP22_030))
**
*NODE
1,-80.000000,-80.000000,0.000000
2,-64.000000,-80.000000,0.000000
3,-48.000000,-80.000000,0.000000
4,-32.000000,-80.000000,0.000000
5,-16.000000,-80.000000,0.000000
6,0.000000,-80.000000,0.000000
7,16.000000,-80.000000,0.000000
8,32.000000,-80.000000,0.000000
9,48.000000,-80.000000,0.000000
10,64.000000,-80.000000,0.000000
11,80.000000,-80.000000,0.000000
1001,-80.000000,-64.000000,0.000000
1002,-64.000000,-64.000000,0.000000
1003,-48.000000,-64.000000,0.000000
1004,-32.000000,-64.000000,0.000000
1005,-16.000000,-64.000000,0.000000
1006,0.000000,-64.000000,0.000000
1007,16.000000,-64.000000,0.000000
1008,32.000000,-64.000000,0.000000
1009,48.000000,-64.000000,0.000000
** ... 959 like lines cut
*ELEMENT,TYPE=C3D8R,ELSET=EALL
1,1,2,1002,1001,100001,100002,101002,101001
2,2,3,1003,1002,100002,100003,101003,101002
3,3,4,1004,1003,100003,100004,101004,101003
4,4,5,1005,1004,100004,100005,101005,101004
5,5,6,1006,1005,100005,100006,101006,101005
6,6,7,1007,1006,100006,100007,101007,101006
7,7,8,1008,1007,100007,100008,101008,101007
8,8,9,1009,1008,100008,100009,101009,101008
9,9,10,1010,1009,100009,100010,101010,101009
10,10,11,1011,1010,100010,100011,101011,101010
11,1001,1002,2002,2001,101001,101002,102002,102001
12,1002,1003,2003,2002,101002,101003,102003,102002
13,1003,1004,2004,2003,101003,101004,102004,102003
14,1004,1005,2005,2004,101004,101005,102005,102004
15,1005,1006,2006,2005,101005,101006,102006,102005
16,1006,1007,2007,2006,101006,101007,102007,102006
17,1007,1008,2008,2007,101007,101008,102008,102007
18,1008,1009,2009,2008,101008,101009,102009,102008
19,1009,1010,2010,2009,101009,101010,102010,102009
20,1010,1011,2011,2010,101010,101011,102011,102010
** ... 448 like lines cut
*ELSET,ELSET=EBRIDGE
1,2,3,4,5,6,7,8,9,10,11,12,13,14,15,16
17,18,19,20,21,22,23,24,25,26,27,28,29,30,31,32
33,34,35,36,37,38,39,40,41,42,43,44,45,46,47,48
49,50,51,52,53,54,55,56,57,58,59,60,61,62,63,64
65,66,67,68,69,70,71,72,73,74,75,76,77,78,79,80
81,82,83,84,85,86,87,88,89,90,91,92,93,94,95,96
97,98,99,100,101,102,103,104,105,106,107,108,109,110,111,112
113,114,115,116,117,118,119,120,121,122,123,124,125,126,127,128
129,130,131,132,133,134,135,136,137,138,139,140,141,142,143,144
145,146,147,148,149,150,151,152,153,154,155,156,157,158,159,160
161,162,163,164,165,166,167,168,169,170,171,172,173,174,175,176
*ELSET,ELSET=ESTAGEB
177,178,179,180,181,182,183,184,185,186,187,188,189,190,191,192
193,194,195,196,197,198,199,200,201,202,203,204,205,206,207,208
209,210,211,212,213,214,215,216,217,218,219,220,221,222,223,224
225,226,227,228,229,230,231,232,233,234,235,236,237,238,239,240
241,242,243,244,245,246,247,248,249,250,251,252,253,254,255,256
257,258,259,260,261,262,263,264,265,266,267,268,269,270,271,272
273,274,275,276,277,278,279,280,281,282,283,284,285,286,287,288
289,290,291,292,293,294,295,296,297,298,299,300,301,302,303,304
305,306,307,308,309,310,311,312,313,314,315,316,317,318,319,320
321,322,323,324,325,326,327,328,329,330,331,332,333,334,335,336
337,338,339,340,341,342,343,344,345,346,347,348,349,350,351,352
353,354,355,356,357,358,359,360,361,362,363,364,365,366,367,368
369,370,371,372,373,374,375,376,377,378,379,380,381,382,383,384
385,386,387,388
*ELSET,ELSET=ESTAGEA
389,390,391,392,393,394,395,396,397,398,399,400,401,402,403,404
405,406,407,408,409,410,411,412,413,414,415,416,417,418,419,420
421,422,423,424,425,426,427,428,429,430,431,432,433,434,435,436
437,438,439,440,441,442,443,444,445,446,447,448,449,450,451,452
453,454,455,456,457,458,459,460,461,462,463,464,465,466,467,468
*ELSET,ELSET=EPROBES
165,366,462,42
*NSET,NSET=NFIXED
1,2,3,4,5,6,7,8,9,10,11,1001,1002,1003,1004,1005
1006,1007,1008,1009,1010,1011,2001,2002,2003,2004,2005,2006,2007,2008,2009,2010
2011,3001,3002,3003,3004,3005,3006,3007,3008,3009,3010,3011,4001,4002,4003,4004
4005,4007,4008,4009,4010,4011,5001,5002,5003,5004,5008,5009,5010,5011,6001,6002
6003,6004,6005,6007,6008,6009,6010,6011,7001,7002,7003,7004,7005,7006,7007,7008
7009,7010,7011,8001,8002,8003,8004,8005,8006,8007,8008,8009,8010,8011,9001,9002
9003,9004,9005,9006,9007,9008,9009,9010,9011,10001,10002,10003,10004,10005,10006,10007
10008,10009,10010,10011
*NSET,NSET=NRP
900000
*NSET,NSET=NS_M6_1
209010,209011,210010,309010,309011,310010
*NSET,NSET=NS_M6_2
200010,201010,201011,300010,301010,301011
*NSET,NSET=NS_M6_3
209001,209002,210002,309001,309002,310002
*NSET,NSET=NS_M6_4
200002,201001,201002,300002,301001,301002
*NSET,NSET=NS_M5_1
606010,607010,706010,707010
*NSET,NSET=NS_M5_2
609007,609008,709007,709008
*NSET,NSET=NS_M5_3
609004,609005,709004,709005
*NSET,NSET=NS_M5_4
606002,607002,706002,707002
*NSET,NSET=NS_M5_5
603002,604002,703002,704002
*NSET,NSET=NS_M5_6
601004,601005,701004,701005
*NSET,NSET=NS_M5_7
601007,601008,701007,701008
*NSET,NSET=NS_M5_8
603010,604010,703010,704010
*NSET,NSET=NS_ARM_SPIDER
902005,904009,906003,908007
*MATERIAL,NAME=AL6061_T6_CAND
*ELASTIC
68300.0,0.33
*DENSITY
2.700e-09
*SOLID SECTION,ELSET=EBRIDGE,MATERIAL=AL6061_T6_CAND
*SOLID SECTION,ELSET=ESTAGEB,MATERIAL=AL6061_T6_CAND
*SOLID SECTION,ELSET=ESTAGEA,MATERIAL=AL6061_T6_CAND
*BOUNDARY
NFIXED,ENCASTRE
** joint couplings (bolt-disk rigid zones)
*SURFACE,TYPE=NODE,NAME=S_NS_M6_1
NS_M6_1,
*SURFACE,TYPE=NODE,NAME=S_NS_M6_2
NS_M6_2,
*SURFACE,TYPE=NODE,NAME=S_NS_M6_3
NS_M6_3,
*SURFACE,TYPE=NODE,NAME=S_NS_M6_4
NS_M6_4,
*SURFACE,TYPE=NODE,NAME=S_NS_M5_1
NS_M5_1,
*SURFACE,TYPE=NODE,NAME=S_NS_M5_2
NS_M5_2,
*SURFACE,TYPE=NODE,NAME=S_NS_M5_3
NS_M5_3,
*SURFACE,TYPE=NODE,NAME=S_NS_M5_4
NS_M5_4,
*SURFACE,TYPE=NODE,NAME=S_NS_M5_5
NS_M5_5,
*SURFACE,TYPE=NODE,NAME=S_NS_M5_6
NS_M5_6,
*SURFACE,TYPE=NODE,NAME=S_NS_M5_7
NS_M5_7,
*SURFACE,TYPE=NODE,NAME=S_NS_M5_8
NS_M5_8,
*SURFACE,TYPE=NODE,NAME=S_NS_ARM_SPIDER
NS_ARM_SPIDER,
*COUPLING,CONSTRAINT NAME=M6_1,REF NODE=900100,SURFACE=S_NS_M6_1
*KINEMATIC
1,6
*COUPLING,CONSTRAINT NAME=M6_2,REF NODE=900101,SURFACE=S_NS_M6_2
*KINEMATIC
1,6
*COUPLING,CONSTRAINT NAME=M6_3,REF NODE=900102,SURFACE=S_NS_M6_3
*KINEMATIC
1,6
*COUPLING,CONSTRAINT NAME=M6_4,REF NODE=900103,SURFACE=S_NS_M6_4
*KINEMATIC
1,6
*COUPLING,CONSTRAINT NAME=M5_1,REF NODE=900200,SURFACE=S_NS_M5_1
*KINEMATIC
1,6
*COUPLING,CONSTRAINT NAME=M5_2,REF NODE=900201,SURFACE=S_NS_M5_2
*KINEMATIC
1,6
*COUPLING,CONSTRAINT NAME=M5_3,REF NODE=900202,SURFACE=S_NS_M5_3
*KINEMATIC
1,6
*COUPLING,CONSTRAINT NAME=M5_4,REF NODE=900203,SURFACE=S_NS_M5_4
*KINEMATIC
1,6
*COUPLING,CONSTRAINT NAME=M5_5,REF NODE=900204,SURFACE=S_NS_M5_5
*KINEMATIC
1,6
*COUPLING,CONSTRAINT NAME=M5_6,REF NODE=900205,SURFACE=S_NS_M5_6
*KINEMATIC
1,6
*COUPLING,CONSTRAINT NAME=M5_7,REF NODE=900206,SURFACE=S_NS_M5_7
*KINEMATIC
1,6
*COUPLING,CONSTRAINT NAME=M5_8,REF NODE=900207,SURFACE=S_NS_M5_8
*KINEMATIC
1,6
*COUPLING,CONSTRAINT NAME=ARM_SPIDER,REF NODE=900000,SURFACE=S_NS_ARM_SPIDER
*KINEMATIC
1,6
*STEP,NAME=QS_STEP,NLGEOM=NO
*STATIC
1.0,1.0
*CLOAD
900000,2,7.21244
900000,6,1846.14
*NODE PRINT,NSET=NFIXED
RF
*NODE PRINT,NSET=NRP
U
*EL PRINT,ELSET=EPROBES
S
*ENERGY PRINT
*OUTPUT,FIELD,VARIABLE=PRESELECT
*OUTPUT,HISTORY
*ENERGY OUTPUT
*END STEP
